<routes xmlns:xsi="http://www.w3.org/2001/XMLSchema-instance" xsi:noNamespaceSchemaLocation="http://sumo.dlr.de/xsd/routes_file.xsd">
    <vehicle id="veast_florentino_0.0" depart="0.00" type="buses">
        <route edges="east_florentino_0 south_osmena_2 south_osmena_3" />
    </vehicle>
    <vehicle id="veast_luna_0.0" depart="0.00" type="buses">
        <route edges="east_luna_0 east_luna_1 east_luna_2 west_luna_0 west_luna_1 west_luna_2 north_osmena_3 south_osmena_0 south_osmena_1 south_osmena_2 south_osmena_3" />
    </vehicle>
    <vehicle id="veast_luna_1.0" depart="0.00" type="buses">
        <route edges="east_luna_1 east_luna_2 west_luna_0 west_luna_1 west_luna_2 north_osmena_3 south_osmena_0 south_osmena_1 south_osmena_2 south_osmena_3" />
    </vehicle>
    <vehicle id="veast_recto_0.0" depart="0.00" type="buses">
        <route edges="east_recto_0 east_recto_1 east_recto_2 east_recto_3" />
    </vehicle>
    <vehicle id="veast_recto_1.0" depart="0.00" type="buses">
        <route edges="east_recto_1 east_recto_2 south_corrales_2" />
    </vehicle>
    <vehicle id="veast_recto_2.0" depart="0.00" type="buses">
        <route edges="east_recto_2 south_corrales_2" />
    </vehicle>
    <vehicle id="vnorth_corrales_0.0" depart="0.00" type="buses">
        <route edges="north_corrales_0 north_corrales_1 north_corrales_2 south_corrales_0 south_corrales_1 south_corrales_2" />
    </vehicle>
    <vehicle id="vnorth_corrales_1.0" depart="0.00" type="buses">
        <route edges="north_corrales_1 north_corrales_2 south_corrales_0 south_corrales_1 south_corrales_2" />
    </vehicle>
    <vehicle id="vnorth_osmena_0.0" depart="0.00" type="buses">
        <route edges="north_osmena_0 north_osmena_1 north_osmena_2 east_luna_0 east_luna_1 east_luna_2 west_luna_0 west_luna_1 west_luna_2 north_osmena_3 south_osmena_0 south_osmena_1 south_osmena_2 south_osmena_3" />
    </vehicle>
    <vehicle id="vnorth_osmena_1.0" depart="0.00" type="buses">
        <route edges="north_osmena_1 north_osmena_2 north_osmena_3 south_osmena_0 south_osmena_1 south_osmena_2 south_osmena_3" />
    </vehicle>
    <vehicle id="vnorth_osmena_2.0" depart="0.00" type="buses">
        <route edges="north_osmena_2 north_osmena_3 south_osmena_0 south_osmena_1 south_osmena_2 south_osmena_3" />
    </vehicle>
    <vehicle id="vnorth_roa_0.0" depart="0.00" type="buses">
        <route edges="north_roa_0 east_luna_1 east_luna_2 west_luna_0 west_luna_1 west_luna_2 north_osmena_3 south_osmena_0 south_osmena_1 south_osmena_2 south_osmena_3" />
    </vehicle>
    <vehicle id="vsouth_corrales_0.0" depart="0.00" type="buses">
        <route edges="south_corrales_0 south_corrales_1 south_corrales_2" />
    </vehicle>
    <vehicle id="vsouth_corrales_1.0" depart="0.00" type="buses">
        <route edges="south_corrales_1 south_corrales_2" />
    </vehicle>
    <vehicle id="vsouth_osmena_0.0" depart="0.00" type="buses">
        <route edges="south_osmena_0 south_osmena_1 south_osmena_2 south_osmena_3" />
    </vehicle>
    <vehicle id="vsouth_osmena_1.0" depart="0.00" type="buses">
        <route edges="south_osmena_1 south_osmena_2 south_osmena_3" />
    </vehicle>
    <vehicle id="vsouth_osmena_2.0" depart="0.00" type="buses">
        <route edges="south_osmena_2 south_osmena_3" />
    </vehicle>
    <vehicle id="vsouth_roa_0.0" depart="0.00" type="buses">
        <route edges="south_roa_0 south_roa_1 west_recto_2 west_recto_3" />
    </vehicle>
    <vehicle id="vwest_luna_0.0" depart="0.00" type="buses">
        <route edges="west_luna_0 west_luna_1 west_luna_2 south_osmena_1 south_osmena_2 south_osmena_3" />
    </vehicle>
    <vehicle id="vwest_luna_1.0" depart="0.00" type="buses">
        <route edges="west_luna_1 west_luna_2 south_osmena_1 south_osmena_2 south_osmena_3" />
    </vehicle>
    <vehicle id="vwest_recto_0.0" depart="0.00" type="buses">
        <route edges="west_recto_0 west_recto_1 west_recto_2 west_recto_3" />
    </vehicle>
    <vehicle id="vwest_recto_1.0" depart="0.00" type="buses">
        <route edges="west_recto_1 west_recto_2 west_recto_3" />
    </vehicle>
    <vehicle id="vwest_recto_2.0" depart="0.00" type="buses">
        <route edges="west_recto_2 west_recto_3" />
    </vehicle>
    <vehicle id="vsouth_corrales_0.1" depart="102.86" type="buses">
        <route edges="south_corrales_0 south_corrales_1 south_corrales_2" />
    </vehicle>
    <vehicle id="vsouth_corrales_1.1" depart="102.86" type="buses">
        <route edges="south_corrales_1 south_corrales_2" />
    </vehicle>
    <vehicle id="vsouth_osmena_0.1" depart="102.86" type="buses">
        <route edges="south_osmena_0 south_osmena_1 south_osmena_2 south_osmena_3" />
    </vehicle>
    <vehicle id="vsouth_osmena_1.1" depart="102.86" type="buses">
        <route edges="south_osmena_1 south_osmena_2 south_osmena_3" />
    </vehicle>
    <vehicle id="vsouth_osmena_2.1" depart="102.86" type="buses">
        <route edges="south_osmena_2 south_osmena_3" />
    </vehicle>
    <vehicle id="vsouth_roa_0.1" depart="102.86" type="buses">
        <route edges="south_roa_0 south_roa_1 west_recto_2 west_recto_3" />
    </vehicle>
    <vehicle id="vnorth_corrales_0.1" depart="189.47" type="buses">
        <route edges="north_corrales_0 east_recto_3" />
    </vehicle>
    <vehicle id="vnorth_corrales_1.1" depart="189.47" type="buses">
        <route edges="north_corrales_1 north_corrales_2 south_corrales_0 south_corrales_1 south_corrales_2" />
    </vehicle>
    <vehicle id="vnorth_osmena_0.1" depart="189.47" type="buses">
        <route edges="north_osmena_0 north_osmena_1 north_osmena_2 north_osmena_3 south_osmena_0 south_osmena_1 south_osmena_2 south_osmena_3" />
    </vehicle>
    <vehicle id="vnorth_osmena_2.1" depart="189.47" type="buses">
        <route edges="north_osmena_2 east_luna_0 east_luna_1 south_corrales_1 south_corrales_2" />
    </vehicle>
    <vehicle id="vnorth_roa_0.1" depart="189.47" type="buses">
        <route edges="north_roa_0 north_roa_1 south_roa_0 south_roa_1 west_recto_2 west_recto_3" />
    </vehicle>
    <vehicle id="vsouth_corrales_0.2" depart="205.71" type="buses">
        <route edges="south_corrales_0 south_corrales_1 south_corrales_2" />
    </vehicle>
    <vehicle id="vsouth_corrales_1.2" depart="205.71" type="buses">
        <route edges="south_corrales_1 south_corrales_2" />
    </vehicle>
    <vehicle id="vsouth_osmena_0.2" depart="205.71" type="buses">
        <route edges="south_osmena_0 south_osmena_1 south_osmena_2 south_osmena_3" />
    </vehicle>
    <vehicle id="vsouth_osmena_1.2" depart="205.71" type="buses">
        <route edges="south_osmena_1 south_osmena_2 south_osmena_3" />
    </vehicle>
    <vehicle id="vsouth_osmena_2.2" depart="205.71" type="buses">
        <route edges="south_osmena_2 south_osmena_3" />
    </vehicle>
    <vehicle id="vsouth_roa_0.2" depart="205.71" type="buses">
        <route edges="south_roa_0 south_roa_1 east_recto_2 south_corrales_2" />
    </vehicle>
    <vehicle id="vnorth_osmena_1.1" depart="240.00" type="buses">
        <route edges="north_osmena_1 north_osmena_2 east_luna_0 south_roa_1 east_recto_2 east_recto_3" />
    </vehicle>
    <vehicle id="vsouth_corrales_0.3" depart="308.57" type="buses">
        <route edges="south_corrales_0 south_corrales_1 south_corrales_2" />
    </vehicle>
    <vehicle id="vsouth_corrales_1.3" depart="308.57" type="buses">
        <route edges="south_corrales_1 south_corrales_2" />
    </vehicle>
    <vehicle id="vsouth_osmena_0.3" depart="308.57" type="buses">
        <route edges="south_osmena_0 south_osmena_1 south_osmena_2 south_osmena_3" />
    </vehicle>
    <vehicle id="vsouth_osmena_1.3" depart="308.57" type="buses">
        <route edges="south_osmena_1 south_osmena_2 south_osmena_3" />
    </vehicle>
    <vehicle id="vsouth_osmena_2.3" depart="308.57" type="buses">
        <route edges="south_osmena_2 south_osmena_3" />
    </vehicle>
    <vehicle id="vsouth_roa_0.3" depart="308.57" type="buses">
        <route edges="south_roa_0 south_roa_1 west_recto_2 west_recto_3" />
    </vehicle>
    <vehicle id="vnorth_corrales_0.2" depart="378.95" type="buses">
        <route edges="north_corrales_0 north_corrales_1 east_luna_2 west_luna_0 west_luna_1 west_luna_2 south_osmena_1 south_osmena_2 south_osmena_3" />
    </vehicle>
    <vehicle id="vnorth_corrales_1.2" depart="378.95" type="buses">
        <route edges="north_corrales_1 north_corrales_2 south_corrales_0 south_corrales_1 south_corrales_2" />
    </vehicle>
    <vehicle id="vnorth_osmena_0.2" depart="378.95" type="buses">
        <route edges="north_osmena_0 east_recto_1 east_recto_2 east_recto_3" />
    </vehicle>
    <vehicle id="vnorth_osmena_2.2" depart="378.95" type="buses">
        <route edges="north_osmena_2 north_osmena_3 south_osmena_0 south_osmena_1 south_osmena_2 south_osmena_3" />
    </vehicle>
    <vehicle id="vnorth_roa_0.2" depart="378.95" type="buses">
        <route edges="north_roa_0 east_luna_1 east_luna_2 west_luna_0 west_luna_1 west_luna_2 north_osmena_3 south_osmena_0 south_osmena_1 south_osmena_2 south_osmena_3" />
    </vehicle>
    <vehicle id="vsouth_corrales_0.4" depart="411.43" type="buses">
        <route edges="south_corrales_0 south_corrales_1 south_corrales_2" />
    </vehicle>
    <vehicle id="vsouth_corrales_1.4" depart="411.43" type="buses">
        <route edges="south_corrales_1 south_corrales_2" />
    </vehicle>
    <vehicle id="vsouth_osmena_0.4" depart="411.43" type="buses">
        <route edges="south_osmena_0 south_osmena_1 south_osmena_2 south_osmena_3" />
    </vehicle>
    <vehicle id="vsouth_osmena_1.4" depart="411.43" type="buses">
        <route edges="south_osmena_1 south_osmena_2 south_osmena_3" />
    </vehicle>
    <vehicle id="vsouth_osmena_2.4" depart="411.43" type="buses">
        <route edges="south_osmena_2 south_osmena_3" />
    </vehicle>
    <vehicle id="vsouth_roa_0.4" depart="411.43" type="buses">
        <route edges="south_roa_0 south_roa_1 east_recto_2 east_recto_3" />
    </vehicle>
    <vehicle id="vnorth_osmena_1.2" depart="480.00" type="buses">
        <route edges="north_osmena_1 north_osmena_2 north_osmena_3 south_osmena_0 south_osmena_1 south_osmena_2 south_osmena_3" />
    </vehicle>
    <vehicle id="vsouth_corrales_0.5" depart="514.29" type="buses">
        <route edges="south_corrales_0 south_corrales_1 south_corrales_2" />
    </vehicle>
    <vehicle id="vsouth_corrales_1.5" depart="514.29" type="buses">
        <route edges="south_corrales_1 south_corrales_2" />
    </vehicle>
    <vehicle id="vsouth_osmena_0.5" depart="514.29" type="buses">
        <route edges="south_osmena_0 south_osmena_1 south_osmena_2 south_osmena_3" />
    </vehicle>
    <vehicle id="vsouth_osmena_1.5" depart="514.29" type="buses">
        <route edges="south_osmena_1 south_osmena_2 south_osmena_3" />
    </vehicle>
    <vehicle id="vsouth_osmena_2.5" depart="514.29" type="buses">
        <route edges="south_osmena_2 south_osmena_3" />
    </vehicle>
    <vehicle id="vsouth_roa_0.5" depart="514.29" type="buses">
        <route edges="south_roa_0 south_roa_1 east_recto_2 east_recto_3" />
    </vehicle>
    <vehicle id="vnorth_corrales_0.3" depart="568.42" type="buses">
        <route edges="north_corrales_0 east_recto_3" />
    </vehicle>
    <vehicle id="vnorth_corrales_1.3" depart="568.42" type="buses">
        <route edges="north_corrales_1 north_corrales_2 south_corrales_0 south_corrales_1 south_corrales_2" />
    </vehicle>
    <vehicle id="vnorth_osmena_0.3" depart="568.42" type="buses">
        <route edges="north_osmena_0 north_osmena_1 north_osmena_2 north_osmena_3 south_osmena_0 south_osmena_1 south_osmena_2 south_osmena_3" />
    </vehicle>
    <vehicle id="vnorth_osmena_2.3" depart="568.42" type="buses">
        <route edges="north_osmena_2 north_osmena_3 south_osmena_0 south_osmena_1 south_osmena_2 south_osmena_3" />
    </vehicle>
    <vehicle id="vnorth_roa_0.3" depart="568.42" type="buses">
        <route edges="north_roa_0 north_roa_1 south_roa_0 south_roa_1 west_recto_2 west_recto_3" />
    </vehicle>
    <vehicle id="vsouth_corrales_0.6" depart="617.14" type="buses">
        <route edges="south_corrales_0 south_corrales_1 south_corrales_2" />
    </vehicle>
    <vehicle id="vsouth_corrales_1.6" depart="617.14" type="buses">
        <route edges="south_corrales_1 south_corrales_2" />
    </vehicle>
    <vehicle id="vsouth_osmena_0.6" depart="617.14" type="buses">
        <route edges="south_osmena_0 south_osmena_1 south_osmena_2 south_osmena_3" />
    </vehicle>
    <vehicle id="vsouth_osmena_1.6" depart="617.14" type="buses">
        <route edges="south_osmena_1 south_osmena_2 south_osmena_3" />
    </vehicle>
    <vehicle id="vsouth_osmena_2.6" depart="617.14" type="buses">
        <route edges="south_osmena_2 south_osmena_3" />
    </vehicle>
    <vehicle id="vsouth_roa_0.6" depart="617.14" type="buses">
        <route edges="south_roa_0 south_roa_1 east_recto_2 east_recto_3" />
    </vehicle>
    <vehicle id="vsouth_corrales_0.7" depart="720.00" type="buses">
        <route edges="south_corrales_0 south_corrales_1 south_corrales_2" />
    </vehicle>
    <vehicle id="vsouth_corrales_1.7" depart="720.00" type="buses">
        <route edges="south_corrales_1 south_corrales_2" />
    </vehicle>
    <vehicle id="vsouth_osmena_0.7" depart="720.00" type="buses">
        <route edges="south_osmena_0 south_osmena_1 south_osmena_2 south_osmena_3" />
    </vehicle>
    <vehicle id="vsouth_osmena_1.7" depart="720.00" type="buses">
        <route edges="south_osmena_1 south_osmena_2 south_osmena_3" />
    </vehicle>
    <vehicle id="vsouth_osmena_2.7" depart="720.00" type="buses">
        <route edges="south_osmena_2 south_osmena_3" />
    </vehicle>
    <vehicle id="vsouth_roa_0.7" depart="720.00" type="buses">
        <route edges="south_roa_0 south_roa_1 west_recto_2 west_recto_3" />
    </vehicle>
    <vehicle id="vnorth_osmena_1.3" depart="720.00" type="buses">
        <route edges="north_osmena_1 north_osmena_2 north_osmena_3 south_osmena_0 south_osmena_1 south_osmena_2 south_osmena_3" />
    </vehicle>
    <vehicle id="vwest_luna_0.1" depart="720.00" type="buses">
        <route edges="west_luna_0 west_luna_1 west_luna_2 south_osmena_1 south_osmena_2 south_osmena_3" />
    </vehicle>
    <vehicle id="vwest_luna_1.1" depart="720.00" type="buses">
        <route edges="west_luna_1 west_luna_2 south_osmena_1 south_osmena_2 south_osmena_3" />
    </vehicle>
    <vehicle id="vwest_recto_0.1" depart="720.00" type="buses">
        <route edges="west_recto_0 west_recto_1 west_recto_2 west_recto_3" />
    </vehicle>
    <vehicle id="vwest_recto_1.1" depart="720.00" type="buses">
        <route edges="west_recto_1 west_recto_2 west_recto_3" />
    </vehicle>
    <vehicle id="vwest_recto_2.1" depart="720.00" type="buses">
        <route edges="west_recto_2 west_recto_3" />
    </vehicle>
    <vehicle id="vnorth_corrales_0.4" depart="757.89" type="buses">
        <route edges="north_corrales_0 north_corrales_1 north_corrales_2 south_corrales_0 south_corrales_1 south_corrales_2" />
    </vehicle>
    <vehicle id="vnorth_corrales_1.4" depart="757.89" type="buses">
        <route edges="north_corrales_1 north_corrales_2 south_corrales_0 south_corrales_1 south_corrales_2" />
    </vehicle>
    <vehicle id="vnorth_osmena_0.4" depart="757.89" type="buses">
        <route edges="north_osmena_0 north_osmena_1 north_osmena_2 north_osmena_3 south_osmena_0 south_osmena_1 south_osmena_2 south_osmena_3" />
    </vehicle>
    <vehicle id="vnorth_osmena_2.4" depart="757.89" type="buses">
        <route edges="north_osmena_2 north_osmena_3 south_osmena_0 south_osmena_1 south_osmena_2 south_osmena_3" />
    </vehicle>
    <vehicle id="vnorth_roa_0.4" depart="757.89" type="buses">
        <route edges="north_roa_0 north_roa_1 south_roa_0 south_roa_1 west_recto_2 west_recto_3" />
    </vehicle>
    <vehicle id="vsouth_corrales_0.8" depart="822.86" type="buses">
        <route edges="south_corrales_0 south_corrales_1 south_corrales_2" />
    </vehicle>
    <vehicle id="vsouth_corrales_1.8" depart="822.86" type="buses">
        <route edges="south_corrales_1 south_corrales_2" />
    </vehicle>
    <vehicle id="vsouth_osmena_0.8" depart="822.86" type="buses">
        <route edges="south_osmena_0 south_osmena_1 south_osmena_2 south_osmena_3" />
    </vehicle>
    <vehicle id="vsouth_osmena_1.8" depart="822.86" type="buses">
        <route edges="south_osmena_1 south_osmena_2 south_osmena_3" />
    </vehicle>
    <vehicle id="vsouth_osmena_2.8" depart="822.86" type="buses">
        <route edges="south_osmena_2 south_osmena_3" />
    </vehicle>
    <vehicle id="vsouth_roa_0.8" depart="822.86" type="buses">
        <route edges="south_roa_0 south_roa_1 east_recto_2 east_recto_3" />
    </vehicle>
    <vehicle id="vsouth_corrales_0.9" depart="925.71" type="buses">
        <route edges="south_corrales_0 south_corrales_1 south_corrales_2" />
    </vehicle>
    <vehicle id="vsouth_corrales_1.9" depart="925.71" type="buses">
        <route edges="south_corrales_1 south_corrales_2" />
    </vehicle>
    <vehicle id="vsouth_osmena_0.9" depart="925.71" type="buses">
        <route edges="south_osmena_0 south_osmena_1 south_osmena_2 south_osmena_3" />
    </vehicle>
    <vehicle id="vsouth_osmena_1.9" depart="925.71" type="buses">
        <route edges="south_osmena_1 south_osmena_2 south_osmena_3" />
    </vehicle>
    <vehicle id="vsouth_osmena_2.9" depart="925.71" type="buses">
        <route edges="south_osmena_2 south_osmena_3" />
    </vehicle>
    <vehicle id="vsouth_roa_0.9" depart="925.71" type="buses">
        <route edges="south_roa_0 south_roa_1 west_recto_2 west_recto_3" />
    </vehicle>
    <vehicle id="vnorth_corrales_0.5" depart="947.37" type="buses">
        <route edges="north_corrales_0 east_recto_3" />
    </vehicle>
    <vehicle id="vnorth_corrales_1.5" depart="947.37" type="buses">
        <route edges="north_corrales_1 east_luna_2 west_luna_0 west_luna_1 west_luna_2 south_osmena_1 south_osmena_2 south_osmena_3" />
    </vehicle>
    <vehicle id="vnorth_osmena_0.5" depart="947.37" type="buses">
        <route edges="north_osmena_0 north_osmena_1 north_osmena_2 north_osmena_3 south_osmena_0 south_osmena_1 south_osmena_2 south_osmena_3" />
    </vehicle>
    <vehicle id="vnorth_osmena_2.5" depart="947.37" type="buses">
        <route edges="north_osmena_2 north_osmena_3 south_osmena_0 south_osmena_1 south_osmena_2 south_osmena_3" />
    </vehicle>
    <vehicle id="vnorth_roa_0.5" depart="947.37" type="buses">
        <route edges="north_roa_0 north_roa_1 south_roa_0 south_roa_1 west_recto_2 west_recto_3" />
    </vehicle>
    <vehicle id="vnorth_osmena_1.4" depart="960.00" type="buses">
        <route edges="north_osmena_1 north_osmena_2 north_osmena_3 south_osmena_0 south_osmena_1 south_osmena_2 south_osmena_3" />
    </vehicle>
    <vehicle id="vsouth_corrales_0.10" depart="1028.57" type="buses">
        <route edges="south_corrales_0 south_corrales_1 south_corrales_2" />
    </vehicle>
    <vehicle id="vsouth_corrales_1.10" depart="1028.57" type="buses">
        <route edges="south_corrales_1 south_corrales_2" />
    </vehicle>
    <vehicle id="vsouth_osmena_0.10" depart="1028.57" type="buses">
        <route edges="south_osmena_0 south_osmena_1 south_osmena_2 south_osmena_3" />
    </vehicle>
    <vehicle id="vsouth_osmena_1.10" depart="1028.57" type="buses">
        <route edges="south_osmena_1 south_osmena_2 south_osmena_3" />
    </vehicle>
    <vehicle id="vsouth_osmena_2.10" depart="1028.57" type="buses">
        <route edges="south_osmena_2 south_osmena_3" />
    </vehicle>
    <vehicle id="vsouth_roa_0.10" depart="1028.57" type="buses">
        <route edges="south_roa_0 south_roa_1 east_recto_2 east_recto_3" />
    </vehicle>
    <vehicle id="vsouth_corrales_0.11" depart="1131.43" type="buses">
        <route edges="south_corrales_0 south_corrales_1 south_corrales_2" />
    </vehicle>
    <vehicle id="vsouth_corrales_1.11" depart="1131.43" type="buses">
        <route edges="south_corrales_1 south_corrales_2" />
    </vehicle>
    <vehicle id="vsouth_osmena_0.11" depart="1131.43" type="buses">
        <route edges="south_osmena_0 south_osmena_1 south_osmena_2 south_osmena_3" />
    </vehicle>
    <vehicle id="vsouth_osmena_1.11" depart="1131.43" type="buses">
        <route edges="south_osmena_1 south_osmena_2 south_osmena_3" />
    </vehicle>
    <vehicle id="vsouth_osmena_2.11" depart="1131.43" type="buses">
        <route edges="south_osmena_2 south_osmena_3" />
    </vehicle>
    <vehicle id="vsouth_roa_0.11" depart="1131.43" type="buses">
        <route edges="south_roa_0 south_roa_1 west_recto_2 west_recto_3" />
    </vehicle>
    <vehicle id="vnorth_corrales_0.6" depart="1136.84" type="buses">
        <route edges="north_corrales_0 north_corrales_1 north_corrales_2 south_corrales_0 south_corrales_1 south_corrales_2" />
    </vehicle>
    <vehicle id="vnorth_corrales_1.6" depart="1136.84" type="buses">
        <route edges="north_corrales_1 east_luna_2 west_luna_0 west_luna_1 west_luna_2 south_osmena_1 south_osmena_2 south_osmena_3" />
    </vehicle>
    <vehicle id="vnorth_osmena_0.6" depart="1136.84" type="buses">
        <route edges="north_osmena_0 north_osmena_1 north_osmena_2 east_luna_0 south_roa_1 west_recto_2 west_recto_3" />
    </vehicle>
    <vehicle id="vnorth_osmena_2.6" depart="1136.84" type="buses">
        <route edges="north_osmena_2 north_osmena_3 south_osmena_0 south_osmena_1 south_osmena_2 south_osmena_3" />
    </vehicle>
    <vehicle id="vnorth_roa_0.6" depart="1136.84" type="buses">
        <route edges="north_roa_0 north_roa_1 south_roa_0 south_roa_1 east_recto_2 south_corrales_2" />
    </vehicle>
    <vehicle id="veast_luna_0.1" depart="1200.00" type="buses">
        <route edges="east_luna_0 east_luna_1 south_corrales_1 south_corrales_2" />
    </vehicle>
    <vehicle id="veast_luna_1.1" depart="1200.00" type="buses">
        <route edges="east_luna_1 south_corrales_1 south_corrales_2" />
    </vehicle>
    <vehicle id="veast_recto_0.1" depart="1200.00" type="buses">
        <route edges="east_recto_0 east_recto_1 east_recto_2 south_corrales_2" />
    </vehicle>
    <vehicle id="veast_recto_2.1" depart="1200.00" type="buses">
        <route edges="east_recto_2 east_recto_3" />
    </vehicle>
    <vehicle id="vnorth_osmena_1.5" depart="1200.00" type="buses">
        <route edges="north_osmena_1 north_osmena_2 north_osmena_3 south_osmena_0 south_osmena_1 south_osmena_2 south_osmena_3" />
    </vehicle>
    <vehicle id="vsouth_corrales_0.12" depart="1234.28" type="buses">
        <route edges="south_corrales_0 south_corrales_1 south_corrales_2" />
    </vehicle>
    <vehicle id="vsouth_corrales_1.12" depart="1234.28" type="buses">
        <route edges="south_corrales_1 south_corrales_2" />
    </vehicle>
    <vehicle id="vsouth_osmena_0.12" depart="1234.28" type="buses">
        <route edges="south_osmena_0 south_osmena_1 south_osmena_2 south_osmena_3" />
    </vehicle>
    <vehicle id="vsouth_osmena_1.12" depart="1234.28" type="buses">
        <route edges="south_osmena_1 south_osmena_2 south_osmena_3" />
    </vehicle>
    <vehicle id="vsouth_osmena_2.12" depart="1234.28" type="buses">
        <route edges="south_osmena_2 south_osmena_3" />
    </vehicle>
    <vehicle id="vsouth_roa_0.12" depart="1234.28" type="buses">
        <route edges="south_roa_0 south_roa_1 west_recto_2 west_recto_3" />
    </vehicle>
    <vehicle id="vnorth_corrales_0.7" depart="1326.31" type="buses">
        <route edges="north_corrales_0 east_recto_3" />
    </vehicle>
    <vehicle id="vnorth_corrales_1.7" depart="1326.31" type="buses">
        <route edges="north_corrales_1 north_corrales_2 south_corrales_0 south_corrales_1 south_corrales_2" />
    </vehicle>
    <vehicle id="vnorth_osmena_0.7" depart="1326.31" type="buses">
        <route edges="north_osmena_0 north_osmena_1 north_osmena_2 east_luna_0 east_luna_1 east_luna_2 west_luna_0 west_luna_1 west_luna_2 south_osmena_1 south_osmena_2 south_osmena_3" />
    </vehicle>
    <vehicle id="vnorth_osmena_2.7" depart="1326.31" type="buses">
        <route edges="north_osmena_2 east_luna_0 south_roa_1 east_recto_2 east_recto_3" />
    </vehicle>
    <vehicle id="vnorth_roa_0.7" depart="1326.31" type="buses">
        <route edges="north_roa_0 east_luna_1 south_corrales_1 south_corrales_2" />
    </vehicle>
    <vehicle id="vsouth_corrales_0.13" depart="1337.14" type="buses">
        <route edges="south_corrales_0 south_corrales_1 south_corrales_2" />
    </vehicle>
    <vehicle id="vsouth_corrales_1.13" depart="1337.14" type="buses">
        <route edges="south_corrales_1 south_corrales_2" />
    </vehicle>
    <vehicle id="vsouth_osmena_0.13" depart="1337.14" type="buses">
        <route edges="south_osmena_0 south_osmena_1 south_osmena_2 south_osmena_3" />
    </vehicle>
    <vehicle id="vsouth_osmena_1.13" depart="1337.14" type="buses">
        <route edges="south_osmena_1 south_osmena_2 south_osmena_3" />
    </vehicle>
    <vehicle id="vsouth_osmena_2.13" depart="1337.14" type="buses">
        <route edges="south_osmena_2 south_osmena_3" />
    </vehicle>
    <vehicle id="vsouth_roa_0.13" depart="1337.14" type="buses">
        <route edges="south_roa_0 south_roa_1 west_recto_2 west_recto_3" />
    </vehicle>
    <vehicle id="vsouth_corrales_0.14" depart="1440.00" type="buses">
        <route edges="south_corrales_0 south_corrales_1 south_corrales_2" />
    </vehicle>
    <vehicle id="vsouth_corrales_1.14" depart="1440.00" type="buses">
        <route edges="south_corrales_1 south_corrales_2" />
    </vehicle>
    <vehicle id="vsouth_osmena_0.14" depart="1440.00" type="buses">
        <route edges="south_osmena_0 south_osmena_1 south_osmena_2 south_osmena_3" />
    </vehicle>
    <vehicle id="vsouth_osmena_1.14" depart="1440.00" type="buses">
        <route edges="south_osmena_1 south_osmena_2 south_osmena_3" />
    </vehicle>
    <vehicle id="vsouth_osmena_2.14" depart="1440.00" type="buses">
        <route edges="south_osmena_2 south_osmena_3" />
    </vehicle>
    <vehicle id="vsouth_roa_0.14" depart="1440.00" type="buses">
        <route edges="south_roa_0 south_roa_1 west_recto_2 west_recto_3" />
    </vehicle>
    <vehicle id="vnorth_osmena_1.6" depart="1440.00" type="buses">
        <route edges="north_osmena_1 north_osmena_2 east_luna_0 east_luna_1 east_luna_2 west_luna_0 west_luna_1 west_luna_2 south_osmena_1 south_osmena_2 south_osmena_3" />
    </vehicle>
    <vehicle id="vwest_luna_0.2" depart="1440.00" type="buses">
        <route edges="west_luna_0 west_luna_1 west_luna_2 north_osmena_3 south_osmena_0 south_osmena_1 south_osmena_2 south_osmena_3" />
    </vehicle>
    <vehicle id="vwest_luna_1.2" depart="1440.00" type="buses">
        <route edges="west_luna_1 west_luna_2 south_osmena_1 south_osmena_2 south_osmena_3" />
    </vehicle>
    <vehicle id="vwest_recto_0.2" depart="1440.00" type="buses">
        <route edges="west_recto_0 west_recto_1 west_recto_2 west_recto_3" />
    </vehicle>
    <vehicle id="vwest_recto_1.2" depart="1440.00" type="buses">
        <route edges="west_recto_1 west_recto_2 west_recto_3" />
    </vehicle>
    <vehicle id="vwest_recto_2.2" depart="1440.00" type="buses">
        <route edges="west_recto_2 west_recto_3" />
    </vehicle>
    <vehicle id="vnorth_corrales_0.8" depart="1515.78" type="buses">
        <route edges="north_corrales_0 north_corrales_1 north_corrales_2 south_corrales_0 south_corrales_1 south_corrales_2" />
    </vehicle>
    <vehicle id="vnorth_corrales_1.8" depart="1515.78" type="buses">
        <route edges="north_corrales_1 north_corrales_2 south_corrales_0 south_corrales_1 south_corrales_2" />
    </vehicle>
    <vehicle id="vnorth_osmena_0.8" depart="1515.78" type="buses">
        <route edges="north_osmena_0 north_osmena_1 north_osmena_2 north_osmena_3 south_osmena_0 south_osmena_1 south_osmena_2 south_osmena_3" />
    </vehicle>
    <vehicle id="vnorth_osmena_2.8" depart="1515.78" type="buses">
        <route edges="north_osmena_2 north_osmena_3 south_osmena_0 south_osmena_1 south_osmena_2 south_osmena_3" />
    </vehicle>
    <vehicle id="vnorth_roa_0.8" depart="1515.78" type="buses">
        <route edges="north_roa_0 north_roa_1 south_roa_0 south_roa_1 west_recto_2 west_recto_3" />
    </vehicle>
    <vehicle id="vsouth_corrales_0.15" depart="1542.86" type="buses">
        <route edges="south_corrales_0 south_corrales_1 south_corrales_2" />
    </vehicle>
    <vehicle id="vsouth_corrales_1.15" depart="1542.86" type="buses">
        <route edges="south_corrales_1 south_corrales_2" />
    </vehicle>
    <vehicle id="vsouth_osmena_0.15" depart="1542.86" type="buses">
        <route edges="south_osmena_0 south_osmena_1 south_osmena_2 south_osmena_3" />
    </vehicle>
    <vehicle id="vsouth_osmena_1.15" depart="1542.86" type="buses">
        <route edges="south_osmena_1 south_osmena_2 south_osmena_3" />
    </vehicle>
    <vehicle id="vsouth_osmena_2.15" depart="1542.86" type="buses">
        <route edges="south_osmena_2 south_osmena_3" />
    </vehicle>
    <vehicle id="vsouth_roa_0.15" depart="1542.86" type="buses">
        <route edges="south_roa_0 south_roa_1 west_recto_2 west_recto_3" />
    </vehicle>
    <vehicle id="vsouth_corrales_0.16" depart="1645.71" type="buses">