<?xml version="1.0" encoding="UTF-8"?>

<!-- generated on 2023-01-04 16:16:07 by Eclipse SUMO jtrrouter Version 1.15.0
<configuration xmlns:xsi="http://www.w3.org/2001/XMLSchema-instance" xsi:noNamespaceSchemaLocation="http://sumo.dlr.de/xsd/jtrrouterConfiguration.xsd">

    <input>
        <net-file value="D:\School Documents\Thesis\DQL_AveEntLumRei\Simulation_Environment\Main MADDPG\osm.net.xml"/>
        <route-files value="flows.tmp.xml"/>
        <turn-ratio-files value="Route Files\buses.xml"/>
    </input>

    <output>
        <output-file value="Final Route Folder\buses_route.xml"/>
    </output>

    <processing>
        <accept-all-destinations value="true"/>
    </processing>

</configuration>
-->

<routes xmlns:xsi="http://www.w3.org/2001/XMLSchema-instance" xsi:noNamespaceSchemaLocation="http://sumo.dlr.de/xsd/routes_file.xsd">
<vType accel="0.4" decel="2.0" sigma="0.5" length="15.0" minGap="2.5" maxSpeed="30.0" guiShape="bus" color="0,0,255" id="buses"/>
    <vehicle id="tnorth_corrales_0.0" depart="0.00">
        <route edges="north_corrales_0 north_corrales_1 north_corrales_2 south_corrales_0 south_corrales_1 south_corrales_2"/>
    </vehicle>
    <vehicle id="tnorth_corrales_1.0" depart="0.00">
        <route edges="north_corrales_1 north_corrales_2 south_corrales_0 south_corrales_1 south_corrales_2"/>
    </vehicle>
    <vehicle id="tnorth_osmena_0.0" depart="0.00">
        <route edges="north_osmena_0 north_osmena_1 north_osmena_2 north_osmena_3 south_osmena_0 south_osmena_1 south_osmena_2 south_osmena_3"/>
    </vehicle>
    <vehicle id="tnorth_osmena_1.0" depart="0.00">
        <route edges="north_osmena_1 north_osmena_2 north_osmena_3 south_osmena_0 south_osmena_1 south_osmena_2 south_osmena_3"/>
    </vehicle>
    <vehicle id="tnorth_osmena_2.0" depart="0.00">
        <route edges="north_osmena_2 north_osmena_3 south_osmena_0 south_osmena_1 south_osmena_2 south_osmena_3"/>
    </vehicle>
    <vehicle id="tnorth_roa_0.0" depart="0.00">
        <route edges="north_roa_0 north_roa_1 south_roa_0 south_roa_1 west_recto_2 west_recto_3"/>
    </vehicle>
    <vehicle id="tsouth_corrales_0.0" depart="0.00">
        <route edges="south_corrales_0 south_corrales_1 south_corrales_2"/>
    </vehicle>
    <vehicle id="tsouth_corrales_1.0" depart="0.00">
        <route edges="south_corrales_1 south_corrales_2"/>
    </vehicle>
    <vehicle id="tsouth_osmena_0.0" depart="0.00">
        <route edges="south_osmena_0 south_osmena_1 south_osmena_2 south_osmena_3"/>
    </vehicle>
    <vehicle id="tsouth_osmena_1.0" depart="0.00">
        <route edges="south_osmena_1 south_osmena_2 south_osmena_3"/>
    </vehicle>
    <vehicle id="tsouth_osmena_2.0" depart="0.00">
        <route edges="south_osmena_2 south_osmena_3"/>
    </vehicle>
    <vehicle id="tsouth_roa_0.0" depart="0.00">
        <route edges="south_roa_0 south_roa_1 west_recto_2 north_osmena_1 north_osmena_2 north_osmena_3 south_osmena_0 south_osmena_1 south_osmena_2 south_osmena_3"/>
    </vehicle>
    <vehicle id="tsouth_corrales_0.1" depart="1800.00">
        <route edges="south_corrales_0 south_corrales_1 south_corrales_2"/>
    </vehicle>
    <vehicle id="tsouth_corrales_1.1" depart="1800.00">
        <route edges="south_corrales_1 south_corrales_2"/>
    </vehicle>
    <vehicle id="tsouth_osmena_0.1" depart="1800.00">
        <route edges="south_osmena_0 south_osmena_1 south_osmena_2 south_osmena_3"/>
    </vehicle>
    <vehicle id="tsouth_osmena_1.1" depart="1800.00">
        <route edges="south_osmena_1 south_osmena_2 south_osmena_3"/>
    </vehicle>
    <vehicle id="tsouth_osmena_2.1" depart="1800.00">
        <route edges="south_osmena_2 south_osmena_3"/>
    </vehicle>
    <vehicle id="tsouth_roa_0.1" depart="1800.00">
        <route edges="south_roa_0 south_roa_1 west_recto_2 west_recto_3"/>
    </vehicle>
    <vehicle id="tnorth_corrales_0#1.0" depart="3600.00">
        <route edges="north_corrales_0 north_corrales_1 north_corrales_2 south_corrales_0 south_corrales_1 south_corrales_2"/>
    </vehicle>
    <vehicle id="tnorth_corrales_1#1.0" depart="3600.00">
        <route edges="north_corrales_1 north_corrales_2 south_corrales_0 south_corrales_1 south_corrales_2"/>
    </vehicle>
    <vehicle id="tnorth_osmena_0#1.0" depart="3600.00">
        <route edges="north_osmena_0 north_osmena_1 north_osmena_2 north_osmena_3 south_osmena_0 south_osmena_1 south_osmena_2 south_osmena_3"/>
    </vehicle>
    <vehicle id="tnorth_osmena_1#1.0" depart="3600.00">
        <route edges="north_osmena_1 north_osmena_2 north_osmena_3 south_osmena_0 south_osmena_1 south_osmena_2 south_osmena_3"/>
    </vehicle>
    <vehicle id="tnorth_osmena_2#1.0" depart="3600.00">
        <route edges="north_osmena_2 north_osmena_3 south_osmena_0 south_osmena_1 south_osmena_2 south_osmena_3"/>
    </vehicle>
    <vehicle id="tnorth_roa_0#1.0" depart="3600.00">
        <route edges="north_roa_0 north_roa_1 south_roa_0 south_roa_1 west_recto_2 west_recto_3"/>
    </vehicle>
    <vehicle id="tsouth_corrales_0#1.0" depart="3600.00">
        <route edges="south_corrales_0 south_corrales_1 south_corrales_2"/>
    </vehicle>
    <vehicle id="tsouth_corrales_1#1.0" depart="3600.00">
        <route edges="south_corrales_1 south_corrales_2"/>
    </vehicle>
    <vehicle id="tsouth_osmena_0#1.0" depart="3600.00">
        <route edges="south_osmena_0 south_osmena_1 south_osmena_2 south_osmena_3"/>
    </vehicle>
    <vehicle id="tsouth_osmena_1#1.0" depart="3600.00">
        <route edges="south_osmena_1 south_osmena_2 south_osmena_3"/>
    </vehicle>
    <vehicle id="tsouth_osmena_2#1.0" depart="3600.00">
        <route edges="south_osmena_2 south_osmena_3"/>
    </vehicle>
    <vehicle id="tsouth_roa_0#1.0" depart="3600.00">
        <route edges="south_roa_0 south_roa_1 east_recto_2 south_corrales_2"/>
    </vehicle>
    <vehicle id="tnorth_corrales_0#1.1" depart="4500.00">
        <route edges="north_corrales_0 north_corrales_1 north_corrales_2 south_corrales_0 south_corrales_1 south_corrales_2"/>
    </vehicle>
    <vehicle id="tnorth_corrales_1#1.1" depart="4500.00">
        <route edges="north_corrales_1 north_corrales_2 south_corrales_0 south_corrales_1 south_corrales_2"/>
    </vehicle>
    <vehicle id="tnorth_osmena_0#1.1" depart="4500.00">
        <route edges="north_osmena_0 north_osmena_1 north_osmena_2 north_osmena_3 south_osmena_0 south_osmena_1 south_osmena_2 south_osmena_3"/>
    </vehicle>
    <vehicle id="tnorth_osmena_1#1.1" depart="4500.00">
        <route edges="north_osmena_1 north_osmena_2 north_osmena_3 south_osmena_0 south_osmena_1 south_osmena_2 south_osmena_3"/>
    </vehicle>
    <vehicle id="tnorth_osmena_2#1.1" depart="4500.00">
        <route edges="north_osmena_2 north_osmena_3 south_osmena_0 south_osmena_1 south_osmena_2 south_osmena_3"/>
    </vehicle>
    <vehicle id="tnorth_roa_0#1.1" depart="4500.00">
        <route edges="north_roa_0 north_roa_1 south_roa_0 south_roa_1 east_recto_2 south_corrales_2"/>
    </vehicle>
    <vehicle id="tsouth_corrales_0#1.1" depart="4800.00">
        <route edges="south_corrales_0 south_corrales_1 south_corrales_2"/>
    </vehicle>
    <vehicle id="tsouth_corrales_1#1.1" depart="4800.00">
        <route edges="south_corrales_1 south_corrales_2"/>
    </vehicle>
    <vehicle id="tsouth_osmena_0#1.1" depart="4800.00">
        <route edges="south_osmena_0 south_osmena_1 south_osmena_2 south_osmena_3"/>
    </vehicle>
    <vehicle id="tsouth_osmena_1#1.1" depart="4800.00">
        <route edges="south_osmena_1 south_osmena_2 south_osmena_3"/>
    </vehicle>
    <vehicle id="tsouth_osmena_2#1.1" depart="4800.00">
        <route edges="south_osmena_2 south_osmena_3"/>
    </vehicle>
    <vehicle id="tsouth_roa_0#1.1" depart="4800.00">
        <route edges="south_roa_0 south_roa_1 west_recto_2 west_recto_3"/>
    </vehicle>
    <vehicle id="tnorth_corrales_0#1.2" depart="5400.00">
        <route edges="north_corrales_0 north_corrales_1 north_corrales_2 south_corrales_0 south_corrales_1 south_corrales_2"/>
    </vehicle>
    <vehicle id="tnorth_corrales_1#1.2" depart="5400.00">
        <route edges="north_corrales_1 north_corrales_2 south_corrales_0 south_corrales_1 south_corrales_2"/>
    </vehicle>
    <vehicle id="tnorth_osmena_0#1.2" depart="5400.00">
        <route edges="north_osmena_0 north_osmena_1 north_osmena_2 north_osmena_3 south_osmena_0 south_osmena_1 south_osmena_2 south_osmena_3"/>
    </vehicle>
    <vehicle id="tnorth_osmena_1#1.2" depart="5400.00">
        <route edges="north_osmena_1 north_osmena_2 north_osmena_3 south_osmena_0 south_osmena_1 south_osmena_2 south_osmena_3"/>
    </vehicle>
    <vehicle id="tnorth_osmena_2#1.2" depart="5400.00">
        <route edges="north_osmena_2 north_osmena_3 south_osmena_0 south_osmena_1 south_osmena_2 south_osmena_3"/>
    </vehicle>
    <vehicle id="tnorth_roa_0#1.2" depart="5400.00">
        <route edges="north_roa_0 north_roa_1 south_roa_0 south_roa_1 east_recto_2 south_corrales_2"/>
    </vehicle>
    <vehicle id="tsouth_corrales_0#1.2" depart="6000.00">
        <route edges="south_corrales_0 south_corrales_1 south_corrales_2"/>
    </vehicle>
    <vehicle id="tsouth_corrales_1#1.2" depart="6000.00">
        <route edges="south_corrales_1 south_corrales_2"/>
    </vehicle>
    <vehicle id="tsouth_osmena_0#1.2" depart="6000.00">
        <route edges="south_osmena_0 south_osmena_1 south_osmena_2 south_osmena_3"/>
    </vehicle>
    <vehicle id="tsouth_osmena_1#1.2" depart="6000.00">
        <route edges="south_osmena_1 south_osmena_2 south_osmena_3"/>
    </vehicle>
    <vehicle id="tsouth_osmena_2#1.2" depart="6000.00">
        <route edges="south_osmena_2 south_osmena_3"/>
    </vehicle>
    <vehicle id="tsouth_roa_0#1.2" depart="6000.00">
        <route edges="south_roa_0 south_roa_1 west_recto_2 north_osmena_1 north_osmena_2 north_osmena_3 south_osmena_0 south_osmena_1 south_osmena_2 south_osmena_3"/>
    </vehicle>
    <vehicle id="tnorth_corrales_0#1.3" depart="6300.00">
        <route edges="north_corrales_0 north_corrales_1 north_corrales_2 south_corrales_0 south_corrales_1 south_corrales_2"/>
    </vehicle>
    <vehicle id="tnorth_corrales_1#1.3" depart="6300.00">
        <route edges="north_corrales_1 north_corrales_2 south_corrales_0 south_corrales_1 south_corrales_2"/>
    </vehicle>
    <vehicle id="tnorth_osmena_0#1.3" depart="6300.00">
        <route edges="north_osmena_0 north_osmena_1 north_osmena_2 north_osmena_3 south_osmena_0 south_osmena_1 south_osmena_2 south_osmena_3"/>
    </vehicle>
    <vehicle id="tnorth_osmena_1#1.3" depart="6300.00">
        <route edges="north_osmena_1 north_osmena_2 north_osmena_3 south_osmena_0 south_osmena_1 south_osmena_2 south_osmena_3"/>
    </vehicle>
    <vehicle id="tnorth_osmena_2#1.3" depart="6300.00">
        <route edges="north_osmena_2 north_osmena_3 south_osmena_0 south_osmena_1 south_osmena_2 south_osmena_3"/>
    </vehicle>
    <vehicle id="tnorth_roa_0#1.3" depart="6300.00">
        <route edges="north_roa_0 north_roa_1 south_roa_0 south_roa_1 west_recto_2 west_recto_3"/>
    </vehicle>
    <vehicle id="tsouth_corrales_0#2.0" depart="7200.00">
        <route edges="south_corrales_0 south_corrales_1 south_corrales_2"/>
    </vehicle>
    <vehicle id="tsouth_corrales_1#2.0" depart="7200.00">
        <route edges="south_corrales_1 south_corrales_2"/>
    </vehicle>
    <vehicle id="tsouth_osmena_0#2.0" depart="7200.00">
        <route edges="south_osmena_0 south_osmena_1 south_osmena_2 south_osmena_3"/>
    </vehicle>
    <vehicle id="tsouth_osmena_1#2.0" depart="7200.00">
        <route edges="south_osmena_1 south_osmena_2 south_osmena_3"/>
    </vehicle>
    <vehicle id="tsouth_osmena_2#2.0" depart="7200.00">
        <route edges="south_osmena_2 south_osmena_3"/>
    </vehicle>
    <vehicle id="tsouth_roa_0#2.0" depart="7200.00">
        <route edges="south_roa_0 south_roa_1 east_recto_2 south_corrales_2"/>
    </vehicle>
    <vehicle id="tsouth_corrales_0#2.1" depart="9000.00">
        <route edges="south_corrales_0 south_corrales_1 south_corrales_2"/>
    </vehicle>
    <vehicle id="tsouth_corrales_1#2.1" depart="9000.00">
        <route edges="south_corrales_1 south_corrales_2"/>
    </vehicle>
    <vehicle id="tsouth_osmena_0#2.1" depart="9000.00">
        <route edges="south_osmena_0 south_osmena_1 south_osmena_2 south_osmena_3"/>
    </vehicle>
    <vehicle id="tsouth_osmena_1#2.1" depart="9000.00">
        <route edges="south_osmena_1 south_osmena_2 south_osmena_3"/>
    </vehicle>
    <vehicle id="tsouth_osmena_2#2.1" depart="9000.00">
        <route edges="south_osmena_2 south_osmena_3"/>
    </vehicle>
    <vehicle id="tsouth_roa_0#2.1" depart="9000.00">
        <route edges="south_roa_0 south_roa_1 west_recto_2 west_recto_3"/>
    </vehicle>
    <vehicle id="tsouth_corrales_0#3.0" depart="10800.00">
        <route edges="south_corrales_0 south_corrales_1 south_corrales_2"/>
    </vehicle>
    <vehicle id="tsouth_corrales_1#3.0" depart="10800.00">
        <route edges="south_corrales_1 south_corrales_2"/>
    </vehicle>
    <vehicle id="tsouth_osmena_0#3.0" depart="10800.00">
        <route edges="south_osmena_0 south_osmena_1 south_osmena_2 south_osmena_3"/>
    </vehicle>
    <vehicle id="tsouth_osmena_1#3.0" depart="10800.00">
        <route edges="south_osmena_1 south_osmena_2 south_osmena_3"/>
    </vehicle>
    <vehicle id="tsouth_osmena_2#3.0" depart="10800.00">
        <route edges="south_osmena_2 south_osmena_3"/>
    </vehicle>
    <vehicle id="tsouth_roa_0#3.0" depart="10800.00">
        <route edges="south_roa_0 south_roa_1 east_recto_2 south_corrales_2"/>
    </vehicle>
    <vehicle id="tnorth_corrales_0#4.0" depart="18000.00">
        <route edges="north_corrales_0 north_corrales_1 north_corrales_2 south_corrales_0 west_luna_1 south_roa_1 east_recto_2 south_corrales_2"/>
    </vehicle>
    <vehicle id="tnorth_corrales_1#4.0" depart="18000.00">
        <route edges="north_corrales_1 north_corrales_2 south_corrales_0 east_luna_2 west_luna_0 south_corrales_1 west_recto_1 west_recto_2 west_recto_3"/>
    </vehicle>
    <vehicle id="tnorth_osmena_0#4.0" depart="18000.00">
        <route edges="north_osmena_0 north_osmena_1 north_osmena_2 north_osmena_3 south_osmena_0 east_luna_0 north_roa_1 south_roa_0 east_luna_1 east_luna_2 west_luna_0 west_luna_1 south_roa_1 east_recto_2 east_recto_3"/>
    </vehicle>
    <vehicle id="tnorth_osmena_1#4.0" depart="18000.00">
        <route edges="north_osmena_1 north_osmena_2 north_osmena_3 south_osmena_0 east_luna_0 east_luna_1 east_luna_2 west_luna_0 west_luna_1 south_roa_1 east_recto_2 east_recto_3"/>
    </vehicle>
    <vehicle id="tnorth_osmena_2#4.0" depart="18000.00">
        <route edges="north_osmena_2 north_osmena_3 south_osmena_0 south_osmena_1 west_florentino_0 east_florentino_0 south_osmena_2 west_recto_3"/>
    </vehicle>
    <vehicle id="tnorth_roa_0#4.0" depart="18000.00">
        <route edges="north_roa_0 north_roa_1 south_roa_0 west_luna_2 north_osmena_3 south_osmena_0 east_luna_0 east_luna_1 north_corrales_2 south_corrales_0 east_luna_2 west_luna_0 south_corrales_1 west_recto_1 west_recto_2 west_recto_3"/>
    </vehicle>
    <vehicle id="tnorth_corrales_0#5.0" depart="25200.00">
        <route edges="north_corrales_0 north_corrales_1 north_corrales_2 south_corrales_0 south_corrales_1 south_corrales_2"/>
    </vehicle>
    <vehicle id="tnorth_corrales_1#5.0" depart="25200.00">
        <route edges="north_corrales_1 north_corrales_2 south_corrales_0 south_corrales_1 south_corrales_2"/>
    </vehicle>
    <vehicle id="tnorth_osmena_0#5.0" depart="25200.00">
        <route edges="north_osmena_0 north_osmena_1 north_osmena_2 north_osmena_3 south_osmena_0 south_osmena_1 south_osmena_2 south_osmena_3"/>
    </vehicle>
    <vehicle id="tnorth_osmena_1#5.0" depart="25200.00">
        <route edges="north_osmena_1 north_osmena_2 north_osmena_3 south_osmena_0 south_osmena_1 south_osmena_2 south_osmena_3"/>
    </vehicle>
    <vehicle id="tnorth_osmena_2#5.0" depart="25200.00">
        <route edges="north_osmena_2 north_osmena_3 south_osmena_0 south_osmena_1 south_osmena_2 south_osmena_3"/>
    </vehicle>
    <vehicle id="tnorth_roa_0#5.0" depart="25200.00">
        <route edges="north_roa_0 north_roa_1 south_roa_0 south_roa_1 east_recto_2 south_corrales_2"/>
    </vehicle>
    <vehicle id="tsouth_corrales_0#5.0" depart="25200.00">
        <route edges="south_corrales_0 south_corrales_1 south_corrales_2"/>
    </vehicle>
    <vehicle id="tsouth_corrales_1#5.0" depart="25200.00">
        <route edges="south_corrales_1 south_corrales_2"/>
    </vehicle>
    <vehicle id="tsouth_osmena_0#5.0" depart="25200.00">
        <route edges="south_osmena_0 south_osmena_1 south_osmena_2 south_osmena_3"/>
    </vehicle>
    <vehicle id="tsouth_osmena_1#5.0" depart="25200.00">
        <route edges="south_osmena_1 south_osmena_2 south_osmena_3"/>
    </vehicle>
    <vehicle id="tsouth_osmena_2#5.0" depart="25200.00">
        <route edges="south_osmena_2 south_osmena_3"/>
    </vehicle>
    <vehicle id="tsouth_roa_0#5.0" depart="25200.00">
        <route edges="south_roa_0 south_roa_1 east_recto_2 south_corrales_2"/>
    </vehicle>
    <vehicle id="tsouth_corrales_0#5.1" depart="26400.00">
        <route edges="south_corrales_0 south_corrales_1 south_corrales_2"/>
    </vehicle>
    <vehicle id="tsouth_corrales_1#5.1" depart="26400.00">
        <route edges="south_corrales_1 south_corrales_2"/>
    </vehicle>
    <vehicle id="tsouth_osmena_0#5.1" depart="26400.00">
        <route edges="south_osmena_0 south_osmena_1 south_osmena_2 south_osmena_3"/>
    </vehicle>
    <vehicle id="tsouth_osmena_1#5.1" depart="26400.00">
        <route edges="south_osmena_1 south_osmena_2 south_osmena_3"/>
    </vehicle>
    <vehicle id="tsouth_osmena_2#5.1" depart="26400.00">
        <route edges="south_osmena_2 south_osmena_3"/>
    </vehicle>
    <vehicle id="tsouth_roa_0#5.1" depart="26400.00">
        <route edges="south_roa_0 south_roa_1 east_recto_2 east_recto_3"/>
    </vehicle>
    <vehicle id="tsouth_corrales_0#5.2" depart="27600.00">
        <route edges="south_corrales_0 south_corrales_1 south_corrales_2"/>
    </vehicle>
    <vehicle id="tsouth_corrales_1#5.2" depart="27600.00">
        <route edges="south_corrales_1 south_corrales_2"/>
    </vehicle>
    <vehicle id="tsouth_osmena_0#5.2" depart="27600.00">
        <route edges="south_osmena_0 south_osmena_1 south_osmena_2 south_osmena_3"/>
    </vehicle>
    <vehicle id="tsouth_osmena_1#5.2" depart="27600.00">
        <route edges="south_osmena_1 south_osmena_2 south_osmena_3"/>
    </vehicle>
    <vehicle id="tsouth_osmena_2#5.2" depart="27600.00">
        <route edges="south_osmena_2 south_osmena_3"/>
    </vehicle>
    <vehicle id="tsouth_roa_0#5.2" depart="27600.00">
        <route edges="south_roa_0 south_roa_1 west_recto_2 south_osmena_3"/>
    </vehicle>
    <vehicle id="tnorth_corrales_0#6.0" depart="28800.00">
        <route edges="north_corrales_0 north_corrales_1 north_corrales_2 south_corrales_0 west_luna_1 north_roa_1 south_roa_0 east_luna_1 south_corrales_1 east_recto_3"/>
    </vehicle>
    <vehicle id="tnorth_corrales_1#6.0" depart="28800.00">
        <route edges="north_corrales_1 north_corrales_2 south_corrales_0 west_luna_1 south_roa_1 east_recto_2 east_recto_3"/>
    </vehicle>
    <vehicle id="tnorth_osmena_0#6.0" depart="28800.00">
        <route edges="north_osmena_0 north_osmena_1 north_osmena_2 north_osmena_3 south_osmena_0 east_luna_0 east_luna_1 east_luna_2 west_luna_0 west_luna_1 south_roa_1 west_recto_2 west_recto_3"/>
    </vehicle>
    <vehicle id="tnorth_osmena_1#6.0" depart="28800.00">
        <route edges="north_osmena_1 north_osmena_2 north_osmena_3 south_osmena_0 east_luna_0 south_roa_1 west_recto_2 west_recto_3"/>
    </vehicle>
    <vehicle id="tnorth_osmena_2#6.0" depart="28800.00">
        <route edges="north_osmena_2 north_osmena_3 south_osmena_0 east_luna_0 south_roa_1 east_recto_2 east_recto_3"/>
    </vehicle>
    <vehicle id="tnorth_roa_0#6.0" depart="28800.00">
        <route edges="north_roa_0 north_roa_1 south_roa_0 east_luna_1 north_corrales_2 south_corrales_0 east_luna_2 west_luna_0 west_luna_1 west_luna_2 south_osmena_1 south_osmena_2 south_osmena_3"/>
    </vehicle>
    <vehicle id="tnorth_corrales_0#7.0" depart="36000.00">
        <route edges="north_corrales_0 north_corrales_1 north_corrales_2 south_corrales_0 west_luna_1 west_luna_2 south_osmena_1 south_osmena_2 south_osmena_3"/>
    </vehicle>
    <vehicle id="tnorth_corrales_1#7.0" depart="36000.00">
        <route edges="north_corrales_1 north_corrales_2 south_corrales_0 east_luna_2 west_luna_0 west_luna_1 south_roa_1 east_recto_2 south_corrales_2"/>
    </vehicle>
    <vehicle id="tnorth_osmena_0#7.0" depart="36000.00">
        <route edges="north_osmena_0 north_osmena_1 north_osmena_2 north_osmena_3 south_osmena_0 east_luna_0 east_luna_1 north_corrales_2 south_corrales_0 south_corrales_1 east_recto_3"/>
    </vehicle>
    <vehicle id="tnorth_osmena_1#7.0" depart="36000.00">
        <route edges="north_osmena_1 north_osmena_2 north_osmena_3 south_osmena_0 east_luna_0 north_roa_1 south_roa_0 east_luna_1 south_corrales_1 east_recto_3"/>
    </vehicle>
    <vehicle id="tnorth_osmena_2#7.0" depart="36000.00">
        <route edges="north_osmena_2 north_osmena_3 south_osmena_0 east_luna_0 north_roa_1 south_roa_0 south_roa_1 west_recto_2 west_recto_3"/>
    </vehicle>
    <vehicle id="tnorth_roa_0#7.0" depart="36000.00">
        <route edges="north_roa_0 north_roa_1 south_roa_0 west_luna_2 north_osmena_3 south_osmena_0 east_luna_0 east_luna_1 north_corrales_2 south_corrales_0 south_corrales_1 south_corrales_2"/>
    </vehicle>
    <vehicle id="tnorth_corrales_0#7.1" depart="36900.00">
        <route edges="north_corrales_0 north_corrales_1 north_corrales_2 south_corrales_0 west_luna_1 north_roa_1 south_roa_0 west_luna_2 south_osmena_1 south_osmena_2 south_osmena_3"/>
    </vehicle>
    <vehicle id="tnorth_corrales_1#7.1" depart="36900.00">
        <route edges="north_corrales_1 north_corrales_2 south_corrales_0 south_corrales_1 south_corrales_2"/>
    </vehicle>
    <vehicle id="tnorth_osmena_0#7.1" depart="36900.00">
        <route edges="north_osmena_0 north_osmena_1 north_osmena_2 north_osmena_3 south_osmena_0 south_osmena_1 west_florentino_0 east_florentino_0 south_osmena_2 south_osmena_3"/>
    </vehicle>
    <vehicle id="tnorth_osmena_1#7.1" depart="36900.00">
        <route edges="north_osmena_1 north_osmena_2 north_osmena_3 south_osmena_0 south_osmena_1 south_osmena_2 south_osmena_3"/>
    </vehicle>
    <vehicle id="tnorth_osmena_2#7.1" depart="36900.00">
        <route edges="north_osmena_2 north_osmena_3 south_osmena_0 east_luna_0 east_luna_1 east_luna_2 west_luna_0 north_corrales_2 south_corrales_0 south_corrales_1 south_corrales_2"/>
    </vehicle>
    <vehicle id="tnorth_roa_0#7.1" depart="36900.00">
        <route edges="north_roa_0 north_roa_1 south_roa_0 south_roa_1 east_recto_2 south_corrales_2"/>
    </vehicle>
    <vehicle id="tnorth_corrales_0#7.2" depart="37800.00">
        <route edges="north_corrales_0 north_corrales_1 north_corrales_2 south_corrales_0 south_corrales_1 south_corrales_2"/>
    </vehicle>
    <vehicle id="tnorth_corrales_1#7.2" depart="37800.00">
        <route edges="north_corrales_1 north_corrales_2 south_corrales_0 east_luna_2 west_luna_0 west_luna_1 west_luna_2 north_osmena_3 south_osmena_0 south_osmena_1 south_osmena_2 east_recto_1 north_roa_0 north_roa_1 south_roa_0 east_luna_1 south_corrales_1 south_corrales_2"/>
    </vehicle>
    <vehicle id="tnorth_osmena_0#7.2" depart="37800.00">
        <route edges="north_osmena_0 north_osmena_1 north_osmena_2 north_osmena_3 south_osmena_0 south_osmena_1 south_osmena_2 south_osmena_3"/>
    </vehicle>
    <vehicle id="tnorth_osmena_1#7.2" depart="37800.00">
        <route edges="north_osmena_1 north_osmena_2 north_osmena_3 south_osmena_0 east_luna_0 north_roa_1 south_roa_0 east_luna_1 north_corrales_2 south_corrales_0 east_luna_2 west_luna_0 south_corrales_1 south_corrales_2"/>
    </vehicle>
    <vehicle id="tnorth_osmena_2#7.2" depart="37800.00">
        <route edges="north_osmena_2 north_osmena_3 south_osmena_0 east_luna_0 south_roa_1 east_recto_2 south_corrales_2"/>
    </vehicle>
    <vehicle id="tnorth_roa_0#7.2" depart="37800.00">
        <route edges="north_roa_0 north_roa_1 south_roa_0 east_luna_1 south_corrales_1 west_recto_1 west_recto_2 west_recto_3"/>
    </vehicle>
    <vehicle id="tnorth_corrales_0#7.3" depart="38700.00">
        <route edges="north_corrales_0 north_corrales_1 north_corrales_2 south_corrales_0 south_corrales_1 south_corrales_2"/>
    </vehicle>
    <vehicle id="tnorth_corrales_1#7.3" depart="38700.00">
        <route edges="north_corrales_1 north_corrales_2 south_corrales_0 east_luna_2 west_luna_0 south_corrales_1 west_recto_1 north_roa_0 north_roa_1 south_roa_0 south_roa_1 east_recto_2 east_recto_3"/>
    </vehicle>
    <vehicle id="tnorth_osmena_0#7.3" depart="38700.00">
        <route edges="north_osmena_0 north_osmena_1 north_osmena_2 north_osmena_3 south_osmena_0 east_luna_0 south_roa_1 east_recto_2 east_recto_3"/>
    </vehicle>
    <vehicle id="tnorth_osmena_1#7.3" depart="38700.00">
        <route edges="north_osmena_1 north_osmena_2 north_osmena_3 south_osmena_0 east_luna_0 north_roa_1 south_roa_0 west_luna_2 south_osmena_1 west_florentino_0 east_florentino_0 south_osmena_2 south_osmena_3"/>
    </vehicle>
    <vehicle id="tnorth_osmena_2#7.3" depart="38700.00">
        <route edges="north_osmena_2 north_osmena_3 south_osmena_0 east_luna_0 east_luna_1 south_corrales_1 west_recto_1 west_recto_2 west_recto_3"/>
    </vehicle>
    <vehicle id="tnorth_roa_0#7.3" depart="38700.00">
        <route edges="north_roa_0 north_roa_1 south_roa_0 south_roa_1 west_recto_2 north_osmena_1 north_osmena_2 north_osmena_3 south_osmena_0 east_luna_0 east_luna_1 east_luna_2 west_luna_0 north_corrales_2 south_corrales_0 south_corrales_1 east_recto_3"/>
    </vehicle>
    <vehicle id="teast_luna_0#8.0" depart="39600.00">
        <route edges="east_luna_0 east_luna_1 east_luna_2 west_luna_0 north_corrales_2 south_corrales_0 west_luna_1 west_luna_2 north_osmena_3 south_osmena_0 south_osmena_1 west_florentino_0 east_florentino_0 north_osmena_2"/>
    </vehicle>
    <vehicle id="teast_luna_1#8.0" depart="39600.00">
        <route edges="east_luna_1 east_luna_2 west_luna_0 south_corrales_1 west_recto_1 north_roa_0 north_roa_1 south_roa_0 west_luna_2 south_osmena_1 north_osmena_2 north_osmena_3 south_osmena_0 east_luna_0 south_roa_1 west_recto_2 north_osmena_1 west_florentino_0 east_florentino_0 south_osmena_2 south_osmena_3"/>
    </vehicle>
    <vehicle id="teast_recto_0#8.0" depart="39600.00">
        <route edges="east_recto_0 east_recto_1 east_recto_2 east_recto_3"/>
    </vehicle>
    <vehicle id="teast_recto_1#8.0" depart="39600.00">
        <route edges="east_recto_1 east_recto_2 east_recto_3"/>
    </vehicle>
    <vehicle id="teast_recto_2#8.0" depart="39600.00">
        <route edges="east_recto_2 east_recto_3"/>
    </vehicle>
    <vehicle id="tnorth_corrales_0#8.0" depart="39600.00">
        <route edges="north_corrales_0 north_corrales_1 north_corrales_2 south_corrales_0 south_corrales_1 south_corrales_2"/>
    </vehicle>
    <vehicle id="tnorth_corrales_1#8.0" depart="39600.00">
        <route edges="north_corrales_1 north_corrales_2 south_corrales_0 south_corrales_1 east_recto_3"/>
    </vehicle>
    <vehicle id="tnorth_osmena_0#8.0" depart="39600.00">
        <route edges="north_osmena_0 north_osmena_1 north_osmena_2 north_osmena_3 south_osmena_0 east_luna_0 east_luna_1 east_luna_2 west_luna_0 west_luna_1 west_luna_2 south_osmena_1 south_osmena_2 east_recto_1 east_recto_2 east_recto_3"/>
    </vehicle>
    <vehicle id="tnorth_osmena_1#8.0" depart="39600.00">
        <route edges="north_osmena_1 north_osmena_2 north_osmena_3 south_osmena_0 south_osmena_1 west_florentino_0 east_florentino_0 south_osmena_2 south_osmena_3"/>
    </vehicle>
    <vehicle id="tnorth_osmena_2#8.0" depart="39600.00">
        <route edges="north_osmena_2 north_osmena_3 south_osmena_0 south_osmena_1 south_osmena_2 south_osmena_3"/>
    </vehicle>
    <vehicle id="tnorth_roa_0#8.0" depart="39600.00">
        <route edges="north_roa_0 north_roa_1 south_roa_0 east_luna_1 east_luna_2 west_luna_0 north_corrales_2 south_corrales_0 west_luna_1 west_luna_2 south_osmena_1 north_osmena_2 north_osmena_3 south_osmena_0 east_luna_0 south_roa_1 east_recto_2 east_recto_3"/>
    </vehicle>
    <vehicle id="tnorth_corrales_0#9.0" depart="46800.00">
        <route edges="north_corrales_0 east_recto_3"/>
    </vehicle>
    <vehicle id="tnorth_corrales_1#9.0" depart="46800.00">
        <route edges="north_corrales_1 east_luna_2 west_luna_0 west_luna_1 south_roa_1 west_recto_2 south_osmena_3"/>
    </vehicle>
    <vehicle id="tnorth_osmena_0#9.0" depart="46800.00">
        <route edges="north_osmena_0 east_recto_1 east_recto_2 east_recto_3"/>
    </vehicle>
    <vehicle id="tnorth_osmena_2#9.0" depart="46800.00">
        <route edges="north_osmena_2 east_luna_0 north_roa_1 south_roa_0 east_luna_1 east_luna_2 west_luna_0 south_corrales_1 south_corrales_2"/>
    </vehicle>
    <vehicle id="tnorth_roa_0#9.0" depart="46800.00">
        <route edges="north_roa_0 east_luna_1 east_luna_2 west_luna_0 south_corrales_1 south_corrales_2"/>
    </vehicle>