<?xml version="1.0" encoding="UTF-8"?>

<!-- generated on 2023-01-04 16:18:32 by Eclipse SUMO jtrrouter Version 1.15.0
<configuration xmlns:xsi="http://www.w3.org/2001/XMLSchema-instance" xsi:noNamespaceSchemaLocation="http://sumo.dlr.de/xsd/jtrrouterConfiguration.xsd">

    <input>
        <net-file value="D:\School Documents\Thesis\DQL_AveEntLumRei\Simulation_Environment\Main MADDPG\osm.net.xml"/>
        <route-files value="flows.tmp.xml"/>
        <turn-ratio-files value="Route Files\smallTrucks.xml"/>
    </input>

    <output>
        <output-file value="Final Route Folder\smallTrucks_route.xml"/>
    </output>

    <processing>
        <accept-all-destinations value="true"/>
    </processing>

</configuration>
-->

<routes xmlns:xsi="http://www.w3.org/2001/XMLSchema-instance" xsi:noNamespaceSchemaLocation="http://sumo.dlr.de/xsd/routes_file.xsd">
    <vehicle id="hnorth_corrales_0.0" depart="0.00">
        <route edges="north_corrales_0 north_corrales_1 north_corrales_2 south_corrales_0 south_corrales_1 south_corrales_2"/>
    </vehicle>
    <vehicle id="hnorth_corrales_1.0" depart="0.00">
        <route edges="north_corrales_1 east_luna_2 west_luna_0 west_luna_1 west_luna_2 south_osmena_1 south_osmena_2 south_osmena_3"/>
    </vehicle>
    <vehicle id="hnorth_osmena_0.0" depart="0.00">
        <route edges="north_osmena_0 east_recto_1 east_recto_2 east_recto_3"/>
    </vehicle>
    <vehicle id="hnorth_osmena_1.0" depart="0.00">
        <route edges="north_osmena_1 north_osmena_2 east_luna_0 north_roa_1 south_roa_0 south_roa_1 west_recto_2 west_recto_3"/>
    </vehicle>
    <vehicle id="hnorth_osmena_2.0" depart="0.00">
        <route edges="north_osmena_2 east_luna_0 east_luna_1 north_corrales_2 south_corrales_0 south_corrales_1 south_corrales_2"/>
    </vehicle>
    <vehicle id="hnorth_roa_0.0" depart="0.00">
        <route edges="north_roa_0 east_luna_1 south_corrales_1 south_corrales_2"/>
    </vehicle>
    <vehicle id="hsouth_corrales_0.0" depart="0.00">
        <route edges="south_corrales_0 south_corrales_1 south_corrales_2"/>
    </vehicle>
    <vehicle id="hsouth_corrales_1.0" depart="0.00">
        <route edges="south_corrales_1 south_corrales_2"/>
    </vehicle>
    <vehicle id="hsouth_osmena_0.0" depart="0.00">
        <route edges="south_osmena_0 south_osmena_1 south_osmena_2 south_osmena_3"/>
    </vehicle>
    <vehicle id="hsouth_osmena_1.0" depart="0.00">
        <route edges="south_osmena_1 south_osmena_2 south_osmena_3"/>
    </vehicle>
    <vehicle id="hsouth_osmena_2.0" depart="0.00">
        <route edges="south_osmena_2 south_osmena_3"/>
    </vehicle>
    <vehicle id="hsouth_roa_0.0" depart="0.00">
        <route edges="south_roa_0 south_roa_1 east_recto_2 south_corrales_2"/>
    </vehicle>
    <vehicle id="hwest_luna_0.0" depart="0.00">
        <route edges="west_luna_0 west_luna_1 west_luna_2 south_osmena_1 south_osmena_2 south_osmena_3"/>
    </vehicle>
    <vehicle id="hwest_luna_1.0" depart="0.00">
        <route edges="west_luna_1 west_luna_2 south_osmena_1 south_osmena_2 south_osmena_3"/>
    </vehicle>
    <vehicle id="hwest_recto_0.0" depart="0.00">
        <route edges="west_recto_0 west_recto_1 west_recto_2 west_recto_3"/>
    </vehicle>
    <vehicle id="hwest_recto_1.0" depart="0.00">
        <route edges="west_recto_1 west_recto_2 west_recto_3"/>
    </vehicle>
    <vehicle id="hwest_recto_2.0" depart="0.00">
        <route edges="west_recto_2 west_recto_3"/>
    </vehicle>
    <vehicle id="hnorth_corrales_0.1" depart="1200.00">
        <route edges="north_corrales_0 east_recto_3"/>
    </vehicle>
    <vehicle id="hnorth_corrales_1.1" depart="1200.00">
        <route edges="north_corrales_1 north_corrales_2 south_corrales_0 south_corrales_1 south_corrales_2"/>
    </vehicle>
    <vehicle id="hnorth_osmena_0.1" depart="1200.00">
        <route edges="north_osmena_0 east_recto_1 east_recto_2 east_recto_3"/>
    </vehicle>
    <vehicle id="hnorth_osmena_2.1" depart="1200.00">
        <route edges="north_osmena_2 north_osmena_3 south_osmena_0 south_osmena_1 south_osmena_2 south_osmena_3"/>
    </vehicle>
    <vehicle id="hnorth_roa_0.1" depart="1200.00">
        <route edges="north_roa_0 east_luna_1 south_corrales_1 south_corrales_2"/>
    </vehicle>
    <vehicle id="hsouth_corrales_0.1" depart="1200.00">
        <route edges="south_corrales_0 south_corrales_1 south_corrales_2"/>
    </vehicle>
    <vehicle id="hsouth_corrales_1.1" depart="1200.00">
        <route edges="south_corrales_1 south_corrales_2"/>
    </vehicle>
    <vehicle id="hsouth_osmena_0.1" depart="1200.00">
        <route edges="south_osmena_0 south_osmena_1 south_osmena_2 south_osmena_3"/>
    </vehicle>
    <vehicle id="hsouth_osmena_1.1" depart="1200.00">
        <route edges="south_osmena_1 south_osmena_2 south_osmena_3"/>
    </vehicle>
    <vehicle id="hsouth_osmena_2.1" depart="1200.00">
        <route edges="south_osmena_2 south_osmena_3"/>
    </vehicle>
    <vehicle id="hsouth_roa_0.1" depart="1200.00">
        <route edges="south_roa_0 south_roa_1 east_recto_2 east_recto_3"/>
    </vehicle>
    <vehicle id="hnorth_corrales_0.2" depart="2400.00">
        <route edges="north_corrales_0 east_recto_3"/>
    </vehicle>
    <vehicle id="hnorth_corrales_1.2" depart="2400.00">
        <route edges="north_corrales_1 north_corrales_2 south_corrales_0 south_corrales_1 south_corrales_2"/>
    </vehicle>
    <vehicle id="hnorth_osmena_0.2" depart="2400.00">
        <route edges="north_osmena_0 north_osmena_1 north_osmena_2 east_luna_0 south_roa_1 east_recto_2 east_recto_3"/>
    </vehicle>
    <vehicle id="hnorth_osmena_2.2" depart="2400.00">
        <route edges="north_osmena_2 north_osmena_3 south_osmena_0 south_osmena_1 south_osmena_2 south_osmena_3"/>
    </vehicle>
    <vehicle id="hnorth_roa_0.2" depart="2400.00">
        <route edges="north_roa_0 north_roa_1 south_roa_0 south_roa_1 west_recto_2 west_recto_3"/>
    </vehicle>
    <vehicle id="hsouth_corrales_0.2" depart="2400.00">
        <route edges="south_corrales_0 south_corrales_1 south_corrales_2"/>
    </vehicle>
    <vehicle id="hsouth_corrales_1.2" depart="2400.00">
        <route edges="south_corrales_1 south_corrales_2"/>
    </vehicle>
    <vehicle id="hsouth_osmena_0.2" depart="2400.00">
        <route edges="south_osmena_0 south_osmena_1 south_osmena_2 south_osmena_3"/>
    </vehicle>
    <vehicle id="hsouth_osmena_1.2" depart="2400.00">
        <route edges="south_osmena_1 south_osmena_2 south_osmena_3"/>
    </vehicle>
    <vehicle id="hsouth_osmena_2.2" depart="2400.00">
        <route edges="south_osmena_2 south_osmena_3"/>
    </vehicle>
    <vehicle id="hsouth_roa_0.2" depart="2400.00">
        <route edges="south_roa_0 south_roa_1 west_recto_2 west_recto_3"/>
    </vehicle>
    <vehicle id="hnorth_corrales_0#1.0" depart="3600.00">
        <route edges="north_corrales_0 east_recto_3"/>
    </vehicle>
    <vehicle id="hnorth_corrales_1#1.0" depart="3600.00">
        <route edges="north_corrales_1 east_luna_2 west_luna_0 west_luna_1 west_luna_2 south_osmena_1 south_osmena_2 south_osmena_3"/>
    </vehicle>
    <vehicle id="hnorth_osmena_0#1.0" depart="3600.00">
        <route edges="north_osmena_0 east_recto_1 east_recto_2 east_recto_3"/>
    </vehicle>
    <vehicle id="hnorth_osmena_2#1.0" depart="3600.00">
        <route edges="north_osmena_2 east_luna_0 east_luna_1 south_corrales_1 south_corrales_2"/>
    </vehicle>
    <vehicle id="hnorth_roa_0#1.0" depart="3600.00">
        <route edges="north_roa_0 east_luna_1 east_luna_2 west_luna_0 north_corrales_2 south_corrales_0 south_corrales_1 south_corrales_2"/>
    </vehicle>
    <vehicle id="hsouth_corrales_0#1.0" depart="3600.00">
        <route edges="south_corrales_0 south_corrales_1 south_corrales_2"/>
    </vehicle>
    <vehicle id="hsouth_corrales_1#1.0" depart="3600.00">
        <route edges="south_corrales_1 south_corrales_2"/>
    </vehicle>
    <vehicle id="hsouth_osmena_0#1.0" depart="3600.00">
        <route edges="south_osmena_0 south_osmena_1 south_osmena_2 south_osmena_3"/>
    </vehicle>
    <vehicle id="hsouth_osmena_1#1.0" depart="3600.00">
        <route edges="south_osmena_1 south_osmena_2 south_osmena_3"/>
    </vehicle>
    <vehicle id="hsouth_osmena_2#1.0" depart="3600.00">
        <route edges="south_osmena_2 south_osmena_3"/>
    </vehicle>
    <vehicle id="hsouth_roa_0#1.0" depart="3600.00">
        <route edges="south_roa_0 south_roa_1 west_recto_2 west_recto_3"/>
    </vehicle>
    <vehicle id="hsouth_corrales_0#1.1" depart="4320.00">
        <route edges="south_corrales_0 south_corrales_1 south_corrales_2"/>
    </vehicle>
    <vehicle id="hsouth_corrales_1#1.1" depart="4320.00">
        <route edges="south_corrales_1 south_corrales_2"/>
    </vehicle>
    <vehicle id="hsouth_osmena_0#1.1" depart="4320.00">
        <route edges="south_osmena_0 south_osmena_1 south_osmena_2 south_osmena_3"/>
    </vehicle>
    <vehicle id="hsouth_osmena_1#1.1" depart="4320.00">
        <route edges="south_osmena_1 south_osmena_2 south_osmena_3"/>
    </vehicle>
    <vehicle id="hsouth_osmena_2#1.1" depart="4320.00">
        <route edges="south_osmena_2 south_osmena_3"/>
    </vehicle>
    <vehicle id="hsouth_roa_0#1.1" depart="4320.00">
        <route edges="south_roa_0 south_roa_1 west_recto_2 south_osmena_3"/>
    </vehicle>
    <vehicle id="hsouth_corrales_0#1.2" depart="5040.00">
        <route edges="south_corrales_0 south_corrales_1 south_corrales_2"/>
    </vehicle>
    <vehicle id="hsouth_corrales_1#1.2" depart="5040.00">
        <route edges="south_corrales_1 south_corrales_2"/>
    </vehicle>
    <vehicle id="hsouth_osmena_0#1.2" depart="5040.00">
        <route edges="south_osmena_0 south_osmena_1 south_osmena_2 south_osmena_3"/>
    </vehicle>
    <vehicle id="hsouth_osmena_1#1.2" depart="5040.00">
        <route edges="south_osmena_1 south_osmena_2 south_osmena_3"/>
    </vehicle>
    <vehicle id="hsouth_osmena_2#1.2" depart="5040.00">
        <route edges="south_osmena_2 south_osmena_3"/>
    </vehicle>
    <vehicle id="hsouth_roa_0#1.2" depart="5040.00">
        <route edges="south_roa_0 south_roa_1 east_recto_2 east_recto_3"/>
    </vehicle>
    <vehicle id="hsouth_corrales_0#1.3" depart="5760.00">
        <route edges="south_corrales_0 south_corrales_1 south_corrales_2"/>
    </vehicle>
    <vehicle id="hsouth_corrales_1#1.3" depart="5760.00">
        <route edges="south_corrales_1 south_corrales_2"/>
    </vehicle>
    <vehicle id="hsouth_osmena_0#1.3" depart="5760.00">
        <route edges="south_osmena_0 south_osmena_1 south_osmena_2 south_osmena_3"/>
    </vehicle>
    <vehicle id="hsouth_osmena_1#1.3" depart="5760.00">
        <route edges="south_osmena_1 south_osmena_2 south_osmena_3"/>
    </vehicle>
    <vehicle id="hsouth_osmena_2#1.3" depart="5760.00">
        <route edges="south_osmena_2 south_osmena_3"/>
    </vehicle>
    <vehicle id="hsouth_roa_0#1.3" depart="5760.00">
        <route edges="south_roa_0 south_roa_1 west_recto_2 south_osmena_3"/>
    </vehicle>
    <vehicle id="hsouth_corrales_0#1.4" depart="6480.00">
        <route edges="south_corrales_0 south_corrales_1 south_corrales_2"/>
    </vehicle>
    <vehicle id="hsouth_corrales_1#1.4" depart="6480.00">
        <route edges="south_corrales_1 south_corrales_2"/>
    </vehicle>
    <vehicle id="hsouth_osmena_0#1.4" depart="6480.00">
        <route edges="south_osmena_0 south_osmena_1 south_osmena_2 south_osmena_3"/>
    </vehicle>
    <vehicle id="hsouth_osmena_1#1.4" depart="6480.00">
        <route edges="south_osmena_1 south_osmena_2 south_osmena_3"/>
    </vehicle>
    <vehicle id="hsouth_osmena_2#1.4" depart="6480.00">
        <route edges="south_osmena_2 south_osmena_3"/>
    </vehicle>
    <vehicle id="hsouth_roa_0#1.4" depart="6480.00">
        <route edges="south_roa_0 south_roa_1 east_recto_2 east_recto_3"/>
    </vehicle>
    <vehicle id="heast_luna_0#2.0" depart="7200.00">
        <route edges="east_luna_0 east_luna_1 east_luna_2 west_luna_0 south_corrales_1 south_corrales_2"/>
    </vehicle>
    <vehicle id="heast_luna_1#2.0" depart="7200.00">
        <route edges="east_luna_1 east_luna_2 west_luna_0 west_luna_1 north_roa_1 south_roa_0 south_roa_1 west_recto_2 west_recto_3"/>
    </vehicle>
    <vehicle id="heast_recto_0#2.0" depart="7200.00">
        <route edges="east_recto_0 east_recto_1 east_recto_2 east_recto_3"/>
    </vehicle>
    <vehicle id="heast_recto_1#2.0" depart="7200.00">
        <route edges="east_recto_1 east_recto_2 east_recto_3"/>
    </vehicle>
    <vehicle id="heast_recto_2#2.0" depart="7200.00">
        <route edges="east_recto_2 east_recto_3"/>
    </vehicle>
    <vehicle id="hnorth_corrales_0#2.0" depart="7200.00">
        <route edges="north_corrales_0 north_corrales_1 east_luna_2 west_luna_0 north_corrales_2 south_corrales_0 south_corrales_1 south_corrales_2"/>
    </vehicle>
    <vehicle id="hnorth_corrales_1#2.0" depart="7200.00">
        <route edges="north_corrales_1 east_luna_2 west_luna_0 north_corrales_2 south_corrales_0 south_corrales_1 south_corrales_2"/>
    </vehicle>
    <vehicle id="hnorth_osmena_0#2.0" depart="7200.00">
        <route edges="north_osmena_0 north_osmena_1 north_osmena_2 north_osmena_3 south_osmena_0 south_osmena_1 south_osmena_2 south_osmena_3"/>
    </vehicle>
    <vehicle id="hnorth_osmena_1#2.0" depart="7200.00">
        <route edges="north_osmena_1 north_osmena_2 east_luna_0 east_luna_1 east_luna_2 west_luna_0 north_corrales_2 south_corrales_0 south_corrales_1 south_corrales_2"/>
    </vehicle>
    <vehicle id="hnorth_osmena_2#2.0" depart="7200.00">
        <route edges="north_osmena_2 east_luna_0 east_luna_1 east_luna_2 west_luna_0 west_luna_1 west_luna_2 north_osmena_3 south_osmena_0 south_osmena_1 south_osmena_2 south_osmena_3"/>
    </vehicle>
    <vehicle id="hnorth_roa_0#2.0" depart="7200.00">
        <route edges="north_roa_0 north_roa_1 south_roa_0 south_roa_1 west_recto_2 north_osmena_1 north_osmena_2 north_osmena_3 south_osmena_0 south_osmena_1 south_osmena_2 south_osmena_3"/>
    </vehicle>
    <vehicle id="hsouth_corrales_0#2.0" depart="7200.00">
        <route edges="south_corrales_0 south_corrales_1 south_corrales_2"/>
    </vehicle>
    <vehicle id="hsouth_corrales_1#2.0" depart="7200.00">
        <route edges="south_corrales_1 south_corrales_2"/>
    </vehicle>
    <vehicle id="hsouth_osmena_0#2.0" depart="7200.00">
        <route edges="south_osmena_0 south_osmena_1 south_osmena_2 south_osmena_3"/>
    </vehicle>
    <vehicle id="hsouth_osmena_1#2.0" depart="7200.00">
        <route edges="south_osmena_1 south_osmena_2 south_osmena_3"/>
    </vehicle>
    <vehicle id="hsouth_osmena_2#2.0" depart="7200.00">
        <route edges="south_osmena_2 south_osmena_3"/>
    </vehicle>
    <vehicle id="hsouth_roa_0#2.0" depart="7200.00">
        <route edges="south_roa_0 south_roa_1 east_recto_2 east_recto_3"/>
    </vehicle>
    <vehicle id="hnorth_corrales_0#2.1" depart="7800.00">
        <route edges="north_corrales_0 north_corrales_1 east_luna_2 west_luna_0 south_corrales_1 south_corrales_2"/>
    </vehicle>
    <vehicle id="hnorth_corrales_1#2.1" depart="7800.00">
        <route edges="north_corrales_1 north_corrales_2 south_corrales_0 south_corrales_1 south_corrales_2"/>
    </vehicle>
    <vehicle id="hnorth_osmena_0#2.1" depart="7800.00">
        <route edges="north_osmena_0 north_osmena_1 north_osmena_2 north_osmena_3 south_osmena_0 south_osmena_1 south_osmena_2 south_osmena_3"/>
    </vehicle>
    <vehicle id="hnorth_osmena_2#2.1" depart="7800.00">
        <route edges="north_osmena_2 north_osmena_3 south_osmena_0 south_osmena_1 south_osmena_2 south_osmena_3"/>
    </vehicle>
    <vehicle id="hnorth_roa_0#2.1" depart="7800.00">
        <route edges="north_roa_0 north_roa_1 south_roa_0 south_roa_1 west_recto_2 north_osmena_1 north_osmena_2 north_osmena_3 south_osmena_0 south_osmena_1 south_osmena_2 south_osmena_3"/>
    </vehicle>
    <vehicle id="hnorth_osmena_1#2.1" depart="8100.00">
        <route edges="north_osmena_1 north_osmena_2 east_luna_0 east_luna_1 east_luna_2 west_luna_0 south_corrales_1 south_corrales_2"/>
    </vehicle>
    <vehicle id="heast_luna_0#2.1" depart="8400.00">
        <route edges="east_luna_0 east_luna_1 east_luna_2 west_luna_0 south_corrales_1 south_corrales_2"/>
    </vehicle>
    <vehicle id="heast_luna_1#2.1" depart="8400.00">
        <route edges="east_luna_1 east_luna_2 west_luna_0 west_luna_1 south_roa_1 west_recto_2 north_osmena_1 north_osmena_2 east_luna_0 north_roa_1 south_roa_0 west_luna_2 south_osmena_1 south_osmena_2 south_osmena_3"/>
    </vehicle>
    <vehicle id="heast_recto_0#2.1" depart="8400.00">
        <route edges="east_recto_0 east_recto_1 east_recto_2 east_recto_3"/>
    </vehicle>
    <vehicle id="heast_recto_1#2.1" depart="8400.00">
        <route edges="east_recto_1 east_recto_2 east_recto_3"/>
    </vehicle>
    <vehicle id="heast_recto_2#2.1" depart="8400.00">
        <route edges="east_recto_2 east_recto_3"/>
    </vehicle>
    <vehicle id="hnorth_corrales_0#2.2" depart="8400.00">
        <route edges="north_corrales_0 north_corrales_1 north_corrales_2 south_corrales_0 south_corrales_1 south_corrales_2"/>
    </vehicle>
    <vehicle id="hnorth_corrales_1#2.2" depart="8400.00">
        <route edges="north_corrales_1 east_luna_2 west_luna_0 south_corrales_1 south_corrales_2"/>
    </vehicle>
    <vehicle id="hnorth_osmena_0#2.2" depart="8400.00">
        <route edges="north_osmena_0 north_osmena_1 north_osmena_2 north_osmena_3 south_osmena_0 south_osmena_1 south_osmena_2 south_osmena_3"/>
    </vehicle>
    <vehicle id="hnorth_osmena_2#2.2" depart="8400.00">
        <route edges="north_osmena_2 north_osmena_3 south_osmena_0 south_osmena_1 south_osmena_2 south_osmena_3"/>
    </vehicle>
    <vehicle id="hnorth_roa_0#2.2" depart="8400.00">
        <route edges="north_roa_0 north_roa_1 south_roa_0 south_roa_1 east_recto_2 east_recto_3"/>
    </vehicle>
    <vehicle id="hsouth_corrales_0#2.1" depart="8400.00">
        <route edges="south_corrales_0 south_corrales_1 south_corrales_2"/>
    </vehicle>
    <vehicle id="hsouth_corrales_1#2.1" depart="8400.00">
        <route edges="south_corrales_1 south_corrales_2"/>
    </vehicle>
    <vehicle id="hsouth_osmena_0#2.1" depart="8400.00">
        <route edges="south_osmena_0 south_osmena_1 south_osmena_2 south_osmena_3"/>
    </vehicle>
    <vehicle id="hsouth_osmena_1#2.1" depart="8400.00">
        <route edges="south_osmena_1 south_osmena_2 south_osmena_3"/>
    </vehicle>
    <vehicle id="hsouth_osmena_2#2.1" depart="8400.00">
        <route edges="south_osmena_2 south_osmena_3"/>
    </vehicle>
    <vehicle id="hsouth_roa_0#2.1" depart="8400.00">
        <route edges="south_roa_0 south_roa_1 east_recto_2 east_recto_3"/>
    </vehicle>
    <vehicle id="hnorth_corrales_0#2.3" depart="9000.00">
        <route edges="north_corrales_0 north_corrales_1 north_corrales_2 south_corrales_0 south_corrales_1 south_corrales_2"/>
    </vehicle>
    <vehicle id="hnorth_corrales_1#2.3" depart="9000.00">
        <route edges="north_corrales_1 east_luna_2 west_luna_0 west_luna_1 south_roa_1 west_recto_2 north_osmena_1 north_osmena_2 north_osmena_3 south_osmena_0 south_osmena_1 south_osmena_2 south_osmena_3"/>
    </vehicle>
    <vehicle id="hnorth_osmena_0#2.3" depart="9000.00">
        <route edges="north_osmena_0 east_recto_1 east_recto_2 east_recto_3"/>
    </vehicle>
    <vehicle id="hnorth_osmena_1#2.2" depart="9000.00">
        <route edges="north_osmena_1 north_osmena_2 north_osmena_3 south_osmena_0 south_osmena_1 south_osmena_2 south_osmena_3"/>
    </vehicle>
    <vehicle id="hnorth_osmena_2#2.3" depart="9000.00">
        <route edges="north_osmena_2 north_osmena_3 south_osmena_0 south_osmena_1 south_osmena_2 south_osmena_3"/>
    </vehicle>
    <vehicle id="hnorth_roa_0#2.3" depart="9000.00">
        <route edges="north_roa_0 north_roa_1 south_roa_0 south_roa_1 west_recto_2 south_osmena_3"/>
    </vehicle>
    <vehicle id="heast_luna_0#2.2" depart="9600.00">
        <route edges="east_luna_0 east_luna_1 east_luna_2 west_luna_0 north_corrales_2 south_corrales_0 south_corrales_1 south_corrales_2"/>
    </vehicle>
    <vehicle id="heast_luna_1#2.2" depart="9600.00">
        <route edges="east_luna_1 east_luna_2 west_luna_0 north_corrales_2 south_corrales_0 south_corrales_1 south_corrales_2"/>
    </vehicle>
    <vehicle id="heast_recto_0#2.2" depart="9600.00">
        <route edges="east_recto_0 east_recto_1 east_recto_2 east_recto_3"/>
    </vehicle>
    <vehicle id="heast_recto_1#2.2" depart="9600.00">
        <route edges="east_recto_1 east_recto_2 east_recto_3"/>
    </vehicle>
    <vehicle id="heast_recto_2#2.2" depart="9600.00">
        <route edges="east_recto_2 east_recto_3"/>
    </vehicle>
    <vehicle id="hnorth_corrales_0#2.4" depart="9600.00">
        <route edges="north_corrales_0 north_corrales_1 north_corrales_2 south_corrales_0 south_corrales_1 south_corrales_2"/>
    </vehicle>
    <vehicle id="hnorth_corrales_1#2.4" depart="9600.00">
        <route edges="north_corrales_1 east_luna_2 west_luna_0 south_corrales_1 south_corrales_2"/>
    </vehicle>
    <vehicle id="hnorth_osmena_0#2.4" depart="9600.00">
        <route edges="north_osmena_0 north_osmena_1 north_osmena_2 north_osmena_3 south_osmena_0 south_osmena_1 south_osmena_2 south_osmena_3"/>
    </vehicle>
    <vehicle id="hnorth_osmena_2#2.4" depart="9600.00">
        <route edges="north_osmena_2 north_osmena_3 south_osmena_0 south_osmena_1 south_osmena_2 south_osmena_3"/>
    </vehicle>
    <vehicle id="hnorth_roa_0#2.4" depart="9600.00">
        <route edges="north_roa_0 north_roa_1 south_roa_0 south_roa_1 east_recto_2 east_recto_3"/>
    </vehicle>
    <vehicle id="hsouth_corrales_0#2.2" depart="9600.00">
        <route edges="south_corrales_0 south_corrales_1 south_corrales_2"/>
    </vehicle>
    <vehicle id="hsouth_corrales_1#2.2" depart="9600.00">
        <route edges="south_corrales_1 south_corrales_2"/>
    </vehicle>
    <vehicle id="hsouth_osmena_0#2.2" depart="9600.00">
        <route edges="south_osmena_0 south_osmena_1 south_osmena_2 south_osmena_3"/>
    </vehicle>
    <vehicle id="hsouth_osmena_1#2.2" depart="9600.00">
        <route edges="south_osmena_1 south_osmena_2 south_osmena_3"/>
    </vehicle>
    <vehicle id="hsouth_osmena_2#2.2" depart="9600.00">
        <route edges="south_osmena_2 south_osmena_3"/>
    </vehicle>
    <vehicle id="hsouth_roa_0#2.2" depart="9600.00">
        <route edges="south_roa_0 south_roa_1 east_recto_2 east_recto_3"/>
    </vehicle>
    <vehicle id="hnorth_osmena_1#2.3" depart="9900.00">
        <route edges="north_osmena_1 north_osmena_2 north_osmena_3 south_osmena_0 south_osmena_1 south_osmena_2 south_osmena_3"/>
    </vehicle>
    <vehicle id="hnorth_corrales_0#2.5" depart="10200.00">
        <route edges="north_corrales_0 north_corrales_1 east_luna_2 west_luna_0 south_corrales_1 south_corrales_2"/>
    </vehicle>
    <vehicle id="hnorth_corrales_1#2.5" depart="10200.00">
        <route edges="north_corrales_1 east_luna_2 west_luna_0 west_luna_1 west_luna_2 south_osmena_1 south_osmena_2 south_osmena_3"/>
    </vehicle>
    <vehicle id="hnorth_osmena_0#2.5" depart="10200.00">
        <route edges="north_osmena_0 east_recto_1 east_recto_2 east_recto_3"/>
    </vehicle>
    <vehicle id="hnorth_osmena_2#2.5" depart="10200.00">
        <route edges="north_osmena_2 north_osmena_3 south_osmena_0 south_osmena_1 south_osmena_2 south_osmena_3"/>
    </vehicle>
    <vehicle id="hnorth_roa_0#2.5" depart="10200.00">
        <route edges="north_roa_0 east_luna_1 east_luna_2 west_luna_0 north_corrales_2 south_corrales_0 south_corrales_1 south_corrales_2"/>
    </vehicle>
    <vehicle id="heast_luna_0#3.0" depart="10800.00">
        <route edges="east_luna_0 east_luna_1 east_luna_2 west_luna_0 west_luna_1 west_luna_2 north_osmena_3 south_osmena_0 south_osmena_1 south_osmena_2 south_osmena_3"/>
    </vehicle>
    <vehicle id="heast_luna_1#3.0" depart="10800.00">
        <route edges="east_luna_1 east_luna_2 west_luna_0 west_luna_1 west_luna_2 north_osmena_3 south_osmena_0 south_osmena_1 south_osmena_2 west_recto_3"/>
    </vehicle>
    <vehicle id="heast_recto_0#3.0" depart="10800.00">
        <route edges="east_recto_0 east_recto_1 east_recto_2 east_recto_3"/>
    </vehicle>
    <vehicle id="heast_recto_1#3.0" depart="10800.00">
        <route edges="east_recto_1 east_recto_2 east_recto_3"/>
    </vehicle>
    <vehicle id="heast_recto_2#3.0" depart="10800.00">
        <route edges="east_recto_2 east_recto_3"/>
    </vehicle>
    <vehicle id="hnorth_corrales_0#3.0" depart="10800.00">
        <route edges="north_corrales_0 north_corrales_1 north_corrales_2 south_corrales_0 south_corrales_1 south_corrales_2"/>
    </vehicle>
    <vehicle id="hnorth_corrales_1#3.0" depart="10800.00">
        <route edges="north_corrales_1 north_corrales_2 south_corrales_0 south_corrales_1 south_corrales_2"/>
    </vehicle>
    <vehicle id="hnorth_osmena_0#3.0" depart="10800.00">
        <route edges="north_osmena_0 north_osmena_1 north_osmena_2 east_luna_0 east_luna_1 east_luna_2 west_luna_0 west_luna_1 west_luna_2 south_osmena_1 south_osmena_2 south_osmena_3"/>
    </vehicle>
    <vehicle id="hnorth_osmena_1#3.0" depart="10800.00">
        <route edges="north_osmena_1 north_osmena_2 east_luna_0 east_luna_1 east_luna_2 west_luna_0 west_luna_1 west_luna_2 south_osmena_1 south_osmena_2 south_osmena_3"/>
    </vehicle>
    <vehicle id="hnorth_osmena_2#3.0" depart="10800.00">
        <route edges="north_osmena_2 north_osmena_3 south_osmena_0 south_osmena_1 south_osmena_2 south_osmena_3"/>
    </vehicle>
    <vehicle id="hnorth_roa_0#3.0" depart="10800.00">
        <route edges="north_roa_0 north_roa_1 south_roa_0 south_roa_1 west_recto_2 west_recto_3"/>
    </vehicle>
    <vehicle id="hsouth_corrales_0#3.0" depart="10800.00">
        <route edges="south_corrales_0 south_corrales_1 south_corrales_2"/>
    </vehicle>
    <vehicle id="hsouth_corrales_1#3.0" depart="10800.00">
        <route edges="south_corrales_1 south_corrales_2"/>
    </vehicle>
    <vehicle id="hsouth_osmena_0#3.0" depart="10800.00">
        <route edges="south_osmena_0 south_osmena_1 west_florentino_0 east_florentino_0 north_osmena_2 north_osmena_3"/>
    </vehicle>
    <vehicle id="hsouth_osmena_1#3.0" depart="10800.00">
        <route edges="south_osmena_1 west_florentino_0 east_florentino_0 north_osmena_2 north_osmena_3 south_osmena_0 east_luna_0 east_luna_1 east_luna_2 west_luna_0 west_luna_1 west_luna_2"/>
    </vehicle>
    <vehicle id="hsouth_osmena_2#3.0" depart="10800.00">
        <route edges="south_osmena_2 south_osmena_3"/>
    </vehicle>
    <vehicle id="hsouth_roa_0#3.0" depart="10800.00">
        <route edges="south_roa_0 south_roa_1 west_recto_2 west_recto_3"/>
    </vehicle>
    <vehicle id="hsouth_roa_1#3.0" depart="10800.00">
        <route edges="south_roa_1 west_recto_2 west_recto_3"/>
    </vehicle>
    <vehicle id="hwest_luna_0#3.0" depart="10800.00">
        <route edges="west_luna_0 west_luna_1 west_luna_2 north_osmena_3 south_osmena_0 south_osmena_1 south_osmena_2 south_osmena_3"/>
    </vehicle>
    <vehicle id="hwest_luna_1#3.0" depart="10800.00">
        <route edges="west_luna_1 west_luna_2 south_osmena_1 south_osmena_2 south_osmena_3"/>
    </vehicle>
    <vehicle id="hwest_recto_0#3.0" depart="10800.00">
        <route edges="west_recto_0 west_recto_1 west_recto_2 west_recto_3"/>
    </vehicle>
    <vehicle id="hwest_recto_1#3.0" depart="10800.00">
        <route edges="west_recto_1 west_recto_2 west_recto_3"/>
    </vehicle>
    <vehicle id="hwest_recto_2#3.0" depart="10800.00">
        <route edges="west_recto_2 west_recto_3"/>
    </vehicle>
    <vehicle id="heast_luna_0#3.1" depart="11127.27">
        <route edges="east_luna_0 east_luna_1 east_luna_2 west_luna_0 west_luna_1 west_luna_2 south_osmena_1 south_osmena_2 south_osmena_3"/>
    </vehicle>
    <vehicle id="heast_luna_1#3.1" depart="11127.27">
        <route edges="east_luna_1 east_luna_2 west_luna_0 west_luna_1 west_luna_2 south_osmena_1 south_osmena_2 south_osmena_3"/>
    </vehicle>
    <vehicle id="heast_recto_0#3.1" depart="11127.27">
        <route edges="east_recto_0 east_recto_1 east_recto_2 east_recto_3"/>
    </vehicle>
    <vehicle id="heast_recto_1#3.1" depart="11127.27">
        <route edges="east_recto_1 east_recto_2 east_recto_3"/>
    </vehicle>
    <vehicle id="heast_recto_2#3.1" depart="11127.27">
        <route edges="east_recto_2 east_recto_3"/>
    </vehicle>
    <vehicle id="hnorth_corrales_0#3.1" depart="11127.27">
        <route edges="north_corrales_0 east_recto_3"/>
    </vehicle>
    <vehicle id="hnorth_corrales_1#3.1" depart="11127.27">
        <route edges="north_corrales_1 east_luna_2 west_luna_0 west_luna_1 west_luna_2 north_osmena_3 south_osmena_0 south_osmena_1 south_osmena_2 south_osmena_3"/>
    </vehicle>
    <vehicle id="hnorth_osmena_0#3.1" depart="11127.27">
        <route edges="north_osmena_0 north_osmena_1 north_osmena_2 east_luna_0 east_luna_1 east_luna_2 west_luna_0 west_luna_1 west_luna_2 north_osmena_3 south_osmena_0 south_osmena_1 south_osmena_2 south_osmena_3"/>
    </vehicle>
    <vehicle id="hnorth_osmena_2#3.1" depart="11127.27">
        <route edges="north_osmena_2 north_osmena_3 south_osmena_0 south_osmena_1 south_osmena_2 south_osmena_3"/>
    </vehicle>