<?xml version="1.0" encoding="UTF-8"?>

<!-- generated on 2022-09-03 15:17:07 by Eclipse SUMO duarouter Version 1.10.0
<configuration xmlns:xsi="http://www.w3.org/2001/XMLSchema-instance" xsi:noNamespaceSchemaLocation="http://sumo.dlr.de/xsd/duarouterConfiguration.xsd">

    <input>
        <net-file value="D:\Main%20GDrive\Programming\Gthub%20Repo\DQL_AveEntLumRei\2022-09-03-15-17-00\osm.net.xml"/>
        <route-files value="D:\Main%20GDrive\Programming\Gthub%20Repo\DQL_AveEntLumRei\2022-09-03-15-17-00\osm.passenger.trips.xml"/>
    </input>

    <output>
        <output-file value="routes.rou.xml"/>
        <alternatives-output value="routes.rou.alt.xml"/>
    </output>

    <time>
        <begin value="0"/>
        <end value="3600"/>
    </time>

    <report>
        <no-warnings value="true"/>
        <ignore-errors value="true"/>
        <no-step-log value="true"/>
    </report>

</configuration>
-->

<routes xmlns:xsi="http://www.w3.org/2001/XMLSchema-instance" xsi:noNamespaceSchemaLocation="http://sumo.dlr.de/xsd/routes_file.xsd">
    <vType id="veh_passenger" vClass="passenger"/>
    <vehicle id="veh0" type="veh_passenger" depart="0.00" departLane="best" departSpeed="max">
        <route edges="243254026#0 1052887757#1 243254030#1 243254030#2 243254030#3 243254030#4 243254030#5 182624929 182624927 -326348400 949925125 -1052634123"/>
    </vehicle>
    <vehicle id="veh1" type="veh_passenger" depart="6.56" departLane="best">
        <route edges="-69549987#2 -69549987#1 40719807#1 40719807#2 186593866#0 186593866#1 186593866#2 186593866#3 182107014#1 182107014#2 182107014#4 182107014#5 182107014#6 182107014#7 182107014#8 494667421#0 -494667421#0"/>
    </vehicle>
    <vehicle id="veh2" type="veh_passenger" depart="13.12" departLane="best" departSpeed="max">
        <route edges="353967234#0 353967234#1 353967234#2 353967234#3 30270057#1 30270057#2 30270057#3 725238124 619284830 490613988#0 490613988#1"/>
    </vehicle>
    <vehicle id="veh3" type="veh_passenger" depart="19.68" departLane="best" departSpeed="max">
        <route edges="785902528 785902529 785902540#0 785902540#1 785902540#2 178414934#1 848673667 182107019#0 -182107019#0"/>
    </vehicle>
    <vehicle id="veh4" type="veh_passenger" depart="26.24" departLane="best">
        <route edges="1052887757#1 243254030#1 243254030#2 243254030#3 243254030#4 243254030#5 243254025#0 243254025#1 243254025#2 190256584#0 190256584#1 190256584#2 190256584#3 190256584#5 190256584#6 190256584#7 190256584#8 190256584#9 -182107018#12 -182107018#8 -182107018#7 -182107018#6 -182107018#4 -182107018#3 -182107018#2 -182107018#1 -182107018#0 114444371#0 114444371#1 114444371#2 -114444371#2"/>
    </vehicle>
    <vehicle id="veh5" type="veh_passenger" depart="32.80" departLane="best" departSpeed="max">
        <route edges="-494343252#13 -494343252#12 -494343252#11 -494343252#10 -494343252#9 -494343252#8 30270057#2 30270057#3 725238124 619284830 490613988#0 490613988#1 182107014#8 494667421#0 494667421#1 494667421#2 494667421#3 494667421#4 183669338#0 183669338#1 183669338#2"/>
    </vehicle>
    <vehicle id="veh6" type="veh_passenger" depart="39.36" departLane="best" departSpeed="max">
        <route edges="-178432453 -88191123#0 182107014#4 182107014#5 182107014#6 182107014#7 -490613988#1 -490613988#0 -619284830 -725238124 -30270057#3 -30270057#2 494343252#8 494343252#9 494343252#10 494343252#11 -494343252#11"/>
    </vehicle>
    <vehicle id="veh7" type="veh_passenger" depart="45.92" departLane="best" departSpeed="max">
        <route edges="-494343252#13 -494343252#12 -494343252#11 -494343252#10 -494343252#9 -494343252#8 30270057#2 30270057#3 725238125 88191073 243254143"/>
    </vehicle>
    <vehicle id="veh8" type="veh_passenger" depart="52.48" departLane="best">
        <route edges="494343252#1 494343252#2 494343252#3 494343252#4 494343252#5 494343252#6 30270057#2 30270057#3 190256571#0 190256571#1 190256571#2 190256571#3 190256571#4 190256571#5 785902529 -1007467126"/>
    </vehicle>
    <vehicle id="veh9" type="veh_passenger" depart="59.03" departLane="best">
        <route edges="88191079 190256571#5 785902529 785902540#0 785902540#1 785902540#2 178414934#1 -88191155"/>
    </vehicle>
    <vehicle id="veh10" type="veh_passenger" depart="65.59" departLane="best" departSpeed="max">
        <route edges="-183669338#2 -183669338#1 -183669338#0 -494667421#5 -494667421#3 -494667421#2 -494667421#1 -494667421#0 -182107014#8 -182107014#7 -182107014#6 -182107014#5 -182107014#4 -182107014#2 -182107014#1 -182107014#0 87219577#0 87219577#1 464366516#0 88191146 -182107019#4"/>
    </vehicle>
    <vehicle id="veh12" type="veh_passenger" depart="78.71" departLane="best">
        <route edges="494343252#0 494343252#1 494343252#2 494343252#3 494343252#4 494343252#5 494343252#6 494343252#8 494343252#9 494343252#10 494343252#11"/>
    </vehicle>
    <vehicle id="veh13" type="veh_passenger" depart="85.27" departLane="best" departSpeed="max">
        <route edges="-942123887 -494667421#0 -182107014#8 -490613988#1 -490613988#0 -619284830 -725238124 725238125 190256572#0 190256572#1 190256572#2 190256572#3 190256572#5"/>
    </vehicle>
    <vehicle id="veh14" type="veh_passenger" depart="91.83" departLane="best">
        <route edges="690847317#1 -186593866#4 182107014#1 182107014#2 182107014#4 182107014#5 182107014#6 182107014#7 182107014#8 494667421#0 494667421#1 494667421#2 494667421#3 494667421#4 1052887757#1 243254030#1"/>
    </vehicle>
    <vehicle id="veh15" type="veh_passenger" depart="98.39" departLane="best" departSpeed="max">
        <route edges="326344763 -182107019#5 -182107019#4 -182107019#3 -182107019#2 -182107019#1 -182107019#0 848673662 848673665#0 -785902540#2 -785902540#1 -141597399#1 -141597399#0"/>
    </vehicle>
    <vehicle id="veh16" type="veh_passenger" depart="104.95" departLane="best">
        <route edges="-494343252#2 494343252#2 494343252#3 494343252#4 494343252#5 494343252#6 30270057#2 30270057#3 190256571#0 190256571#1 190256571#2 190256571#3 190256571#4 190256571#5 785902529 785902540#0 -141597399#1 -819728492"/>
    </vehicle>
    <vehicle id="veh17" type="veh_passenger" depart="111.51" departLane="best">
        <route edges="-182107019#4 -182107019#3 -182107019#2 182107017 182107014#0 182107014#1 182107014#2 182107014#4 182107014#5 182107014#6 182107014#7 -490613988#1 -490613988#0 -619284830"/>
    </vehicle>
    <vehicle id="veh18" type="veh_passenger" depart="118.07" departLane="best" departSpeed="max">
        <route edges="-183669338#2 -183669338#1 -183669338#0 -494667421#5 -494667421#3 -494667421#2 -494667421#1 -494667421#0 -182107014#8 -182107014#7 -182107014#6 -182107014#5 -182107014#4 -182107014#2 -182107014#1 -182107014#0 182107015#0 182107015#1 182107015#2 182107015#3 182107016 848673662 848673665#0 -785902540#2 -785902540#1"/>
    </vehicle>
    <vehicle id="veh19" type="veh_passenger" depart="124.63" departLane="best" departSpeed="max">
        <route edges="243254026#0 1052887757#1"/>
    </vehicle>
    <vehicle id="veh20" type="veh_passenger" depart="131.19" departLane="best">
        <route edges="-88191146 -464366516#0 -87219577#1 -87219577#0 182107014#0 182107014#1 182107014#2 182107014#4 182107014#5 182107014#6 182107014#7 -490613988#1 -490613988#0 -619284830 -725238124 -30270057#3 -30270057#2 -494343252#7 -494343252#5 -494343252#4"/>
    </vehicle>
    <vehicle id="veh21" type="veh_passenger" depart="137.75" departLane="best">
        <route edges="-579458307 -88191089#1 88191089#1 579458307 -114444371#1 -114444371#0 182107016 88191025#1"/>
    </vehicle>
    <vehicle id="veh22" type="veh_passenger" depart="144.31" departLane="best" departSpeed="max">
        <route edges="243254026#0 -494667421#5 -494667421#3 -494667421#2 -494667421#1 -494667421#0 -182107014#8 -182107014#7 -182107014#6 -182107014#5 -182107014#4 -182107014#2 -182107014#1 -182107014#0 87219577#0 87219577#1 494667412#0 182107019#4 289519580"/>
    </vehicle>
    <vehicle id="veh23" type="veh_passenger" depart="150.87" departLane="best">
        <route edges="-31954377#0 182107014#2 182107014#4 182107014#5 182107014#6 182107014#7 -490613988#1 -490613988#0 -619284830 -725238124 -30270057#3 -30270057#2 494343252#8 494343252#9 494343252#10 494343252#11"/>
    </vehicle>
    <vehicle id="veh24" type="veh_passenger" depart="157.43" departLane="best">
        <route edges="-30270057#1 30270057#1 30270057#2 30270057#3 725238124 619284830 -182107018#12 -182107018#8 -182107018#7 -182107018#6 -182107018#4 -182107018#3 -182107018#2 -182107018#1 -182107018#0 114444371#0 114444371#1"/>
    </vehicle>
    <vehicle id="veh25" type="veh_passenger" depart="163.98" departLane="best" departSpeed="max">
        <route edges="91198487 690847317#1 -186593866#4 182107014#1 182107014#2 182107014#4 182107014#5 182107014#6 182107014#7 -490613988#1 -490613988#0 -619284830 -725238124 -30270057#3 -30270057#2 494343252#8 494343252#9 88191095#0 353967234#2"/>
    </vehicle>
    <vehicle id="veh27" type="veh_passenger" depart="177.10" departLane="best">
        <route edges="-494343252#2 494343252#2 494343252#3 494343252#4 494343252#5 494343252#6 30270057#2 30270057#3 190256571#0 190256571#1 190256571#2 190256571#3 190256571#4 190256571#5 -114444371#4"/>
    </vehicle>
    <vehicle id="veh28" type="veh_passenger" depart="183.66" departLane="best" departSpeed="max">
        <route edges="-819689551 -183669338#1 -183669338#0 -494667421#5 -494667421#3 -494667421#2 -494667421#1 -494667421#0 -182107014#8 -490613988#1 -490613988#0 -619284830 -725238124 190256571#0 190256571#1 190256571#2 190256571#3 190256571#4 190256571#5 -785902528"/>
    </vehicle>
    <vehicle id="veh29" type="veh_passenger" depart="190.22" departLane="best">
        <route edges="-494343252#11 -494343252#10 -494343252#9 -494343252#8 -494343252#7 -494343252#5 -494343252#4 -494343252#3 -494343252#2 -494343252#1 88191042"/>
    </vehicle>
    <vehicle id="veh30" type="veh_passenger" depart="196.78" departLane="best">
        <route edges="732022517#0 -732022517#0 785902540#0 785902540#1 -88191087#4 -88191087#3 -88191087#2 -88191087#1 -88191087#0"/>
    </vehicle>
    <vehicle id="veh31" type="veh_passenger" depart="203.34" departLane="best">
        <route edges="243254030#3 243254030#4 243254030#5 243254025#0 243254025#1 243254025#2 190256584#0 190256584#1 190256584#2 190256584#3 190256584#5 190256584#6 190256584#7 190256584#8 190256584#9 -182107018#12 -182107018#8 -182107018#7 -182107018#6 88191063#0 136178317"/>
    </vehicle>
    <vehicle id="veh32" type="veh_passenger" depart="209.90" departLane="best" departSpeed="max">
        <route edges="819728492 141597399#1 785902540#1 785902540#2 178414934#1 848673667 182107019#0 182107019#1 182107017 182107015#0 182107015#1 182107015#2 182107015#3"/>
    </vehicle>
    <vehicle id="veh33" type="veh_passenger" depart="216.46" departLane="best">
        <route edges="-501095917 -88191063#0 182107018#6 182107018#7 182107018#8 182107018#12 -619284830 -725238124"/>
    </vehicle>
    <vehicle id="veh34" type="veh_passenger" depart="223.02" departLane="best">
        <route edges="182624929 494343241#0 494343241#1 494343252#0 494343252#1 494343252#2 494343252#3 494343252#4 494343252#5 494343252#6 30270057#2 30270057#3 190256571#0 190256571#1 190256571#2 190256571#3 190256571#4 190256571#5 -785902528"/>
    </vehicle>
    <vehicle id="veh35" type="veh_passenger" depart="229.58" departLane="best">
        <route edges="190256571#4 -190256571#4 -190256571#3 -190256571#2 -190256571#1 -190256571#0 725238124 619284830 490613988#0 490613988#1 182107014#8 494667421#0 494667421#1 494667421#2 494667421#3 494667421#4 183669338#0 183669338#1 819689551"/>
    </vehicle>
    <vehicle id="veh36" type="veh_passenger" depart="236.14" departLane="best" departSpeed="max">
        <route edges="1052634123 -949925125 263159366#0 263159366#1 263159366#2 263159366#3 30270057#0 30270057#1 494343252#8 -494343252#8"/>
    </vehicle>
    <vehicle id="veh37" type="veh_passenger" depart="242.70" departLane="best">
        <route edges="949925124 494343251#0 494343251#1 494343251#4 494343251#5 494343249 243254025#0 243254025#1 243254025#2 243254025#3 183669338#0 183669338#1 183669338#2"/>
    </vehicle>
    <vehicle id="veh38" type="veh_passenger" depart="249.26" departLane="best" departSpeed="max">
        <route edges="-183669338#2 -183669338#1 -183669338#0 -494667421#5 -494667421#3 -494667421#2 -494667421#1 -494667421#0 -182107014#8 -182107014#7 -182107014#6 -182107014#5 -182107014#4 -182107014#2 -182107014#1 -182107014#0 182107015#0 182107015#1 182107015#2 182107015#3 182107016 848673662 848673665#0 -785902540#2 -785902540#1 -141597399#1 -141597399#0"/>
    </vehicle>
    <vehicle id="veh39" type="veh_passenger" depart="255.82" departLane="best">
        <route edges="-190256571#0 725238124 619284830 -182107018#12 -182107018#8 -182107018#7 -182107018#6 -182107018#4 -31954377#1 31954377#1"/>
    </vehicle>
    <vehicle id="veh40" type="veh_passenger" depart="262.38" departLane="best">
        <route edges="494343241#3 949925123 263159366#0 263159366#1 263159366#2 263159366#3 30270057#0 30270057#1 30270057#2 30270057#3 190256571#0 190256571#1 190256571#2 190256571#3 190256571#4 190256571#5 785902529 785902540#0 785902540#1 785902540#2 178414934#1 848673667 182107019#0 182107019#1 182107019#2 182107019#3 182107019#4 182107019#5 181547908"/>
    </vehicle>
    <vehicle id="veh41" type="veh_passenger" depart="268.94" departLane="best">
        <route edges="-182107018#3 -182107018#2 -182107018#1 -182107018#0 114444371#0 114444371#1 114444371#2 114444371#3"/>
    </vehicle>
    <vehicle id="veh42" type="veh_passenger" depart="275.49" departLane="best">
        <route edges="88191089#1 579458307 114444371#2 114444371#3 114444371#4 785902529 732022517#0 732022517#1"/>
    </vehicle>
    <vehicle id="veh43" type="veh_passenger" depart="282.05" departLane="best" departSpeed="max">
        <route edges="-136178311 136178319#1 -725238124 -30270057#3 -30270057#2 -494343252#7 -494343252#5 -494343252#4 -494343252#3 -494343252#2 -494343252#1 -494343252#0 494343252#0"/>
    </vehicle>
    <vehicle id="veh44" type="veh_passenger" depart="288.61" departLane="best">
        <route edges="263159366#3 30270057#0 30270057#1 30270057#2 30270057#3 190256571#0 190256571#1 190256571#2 190256571#3 190256571#4 190256571#5"/>
    </vehicle>
    <vehicle id="veh45" type="veh_passenger" depart="295.17" departLane="best">
        <route edges="-579458307 -88191089#1 -88191089#0 69549987#2 88191079 -190256571#4 -190256571#3 -190256571#2 -190256571#1 -190256571#0 725238125 -725238125 -30270057#3 -30270057#2 494343252#8 494343252#9 88191095#0 353967234#2"/>
    </vehicle>
    <vehicle id="veh46" type="veh_passenger" depart="301.73" departLane="best">
        <route edges="-190256571#1 -190256571#0 725238124 619284830 490613988#0 490613988#1 -182107014#7 -182107014#6 -182107014#5 -182107014#4 -182107014#2 -182107014#1 -182107014#0 182107014#0"/>
    </vehicle>
    <vehicle id="veh47" type="veh_passenger" depart="308.29" departLane="best">
        <route edges="114444363#1 114444358 -732022517#2 -732022517#1 -732022517#0 -785902529 -190256571#5 -190256571#4 -190256571#3 -190256571#2 -190256571#1 -190256571#0 725238124 619284830 490613988#0 490613988#1 182107014#8 -88191070#1 88191070#1"/>
    </vehicle>
    <vehicle id="veh48" type="veh_passenger" depart="314.85" departLane="best">
        <route edges="725238125 -725238125 190256571#0 190256571#1 190256571#2 190256571#3 190256571#4 190256571#5 -785902528"/>
    </vehicle>
    <vehicle id="veh49" type="veh_passenger" depart="321.41" departLane="best">
        <route edges="182107014#0 182107014#1 182107014#2 182107014#4 182107014#5 182107014#6 182107014#7 182107014#8 494667421#0 494667421#1 494667421#2 494667421#3 494667421#4 1052887757#1 243254030#1 243254030#2 243254030#3 243254030#4 243254030#5 182624929 182624927 -326348400"/>
    </vehicle>
    <vehicle id="veh50" type="veh_passenger" depart="327.97" departLane="best" departSpeed="max">
        <route edges="819667451 -182107014#2 -182107014#1 -182107014#0 182107015#0 182107015#1 182107015#2 182107015#3 182107016 848673662 848673665#0 -785902540#2 -785902540#1 -785902540#0 785902540#0"/>
    </vehicle>
    <vehicle id="veh51" type="veh_passenger" depart="334.53" departLane="best">
        <route edges="-732022517#2 -732022517#1 -732022517#0 -785902529 -190256571#5 -190256571#4 -190256571#3 -190256571#2 -190256571#1 -190256571#0 725238125 -725238125 -30270057#3 -30270057#2 494343252#8 494343252#9 88191095#0 353967234#2"/>
    </vehicle>
    <vehicle id="veh52" type="veh_passenger" depart="341.09" departLane="best">
        <route edges="353967234#5 494343239 263159366#2 263159366#3 30270057#0 30270057#1 30270057#2 30270057#3 190256571#0 190256571#1 190256571#2 190256571#3 190256571#4 190256571#5"/>
    </vehicle>
    <vehicle id="veh53" type="veh_passenger" depart="347.65" departLane="best">
        <route edges="490613988#1 -490613988#1 -490613988#0 -619284830 -725238124 190256571#0 190256571#1 190256571#2"/>
    </vehicle>
    <vehicle id="veh54" type="veh_passenger" depart="354.21" departLane="best">
        <route edges="-136178319#1 136178319#1 619284830 -182107018#12 -182107018#8 -182107018#7 -182107018#6 -182107018#4 -182107018#3 -182107018#2 -182107018#1 -182107018#0 182107016 182107019#0 182107019#1 182107019#2 87219578#1"/>
    </vehicle>
    <vehicle id="veh55" type="veh_passenger" depart="360.77" departLane="best">
        <route edges="732022517#1 -732022517#1 -732022517#0 -785902529 -190256571#5 -190256571#4 40719807#0 69549987#1"/>
    </vehicle>
    <vehicle id="veh56" type="veh_passenger" depart="367.33" departLane="best">
        <route edges="-785902540#2 785902540#2 178414934#1 848673667 182107019#0 182107019#1 182107017 182107014#0 182107014#1 182107014#2 -182107014#2"/>
    </vehicle>
    <vehicle id="veh57" type="veh_passenger" depart="373.89" departLane="best">
        <route edges="732022517#0 -732022517#0 785902540#0 785902540#1 785902540#2 178414934#1 848673667 182107019#0 88191067"/>
    </vehicle>
    <vehicle id="veh58" type="veh_passenger" depart="380.44" departLane="best">
        <route edges="-183669338#0 -494667421#5 -494667421#3 -494667421#2 -494667421#1 -494667421#0 -182107014#8 -182107014#7 -182107014#6 -182107014#5 -182107014#4 -182107014#2 -182107014#1 -182107014#0 87219577#0 87219577#1 494667412#0 -182107019#3 182107019#3"/>
    </vehicle>
    <vehicle id="veh59" type="veh_passenger" depart="387.00" departLane="best">
        <route edges="-182107018#8 182107018#8 182107018#12 -619284830 -725238124 -30270057#3 -30270057#2 494343252#8"/>
    </vehicle>
    <vehicle id="veh60" type="veh_passenger" depart="393.56" departLane="best">
        <route edges="370526996 -494343252#11 -494343252#10 -494343252#9 -494343252#8 30270057#2 30270057#3 190256571#0 190256571#1 190256571#2 190256571#3 190256571#4 190256571#5 -190256571#5"/>
    </vehicle>
    <vehicle id="veh61" type="veh_passenger" depart="400.12" departLane="best" departSpeed="max">
        <route edges="141597399#0 141597399#1 -785902540#0 -785902529 -190256571#5 -190256571#4 -190256571#3 -190256571#2 -190256571#1 -190256571#0 725238125 190256572#0 190256572#1 190256572#2 190256572#3"/>
    </vehicle>
    <vehicle id="veh62" type="veh_passenger" depart="406.68" departLane="best">
        <route edges="-501095917 -88191063#0 -182107018#4 -182107018#3 -182107018#2 -182107018#1 -182107018#0 182107016 848673662 848673665#0 -785902540#2 -785902540#1 785902540#1"/>
    </vehicle>
    <vehicle id="veh63" type="veh_passenger" depart="413.24" departLane="best">
        <route edges="114444358 -732022517#2 -732022517#1 -732022517#0 -785902529 -190256571#5 -190256571#4 -190256571#3 -190256571#2 -190256571#1 -190256571#0 725238125 -725238125 -30270057#3 -30270057#2 -494343252#7 -494343252#5 -494343252#4"/>
    </vehicle>
    <vehicle id="veh64" type="veh_passenger" depart="419.80" departLane="best">
        <route edges="182107018#7 182107018#8 182107018#12 -619284830 -725238124 -30270057#3 -30270057#2 494343252#8 494343252#9 494343252#10 494343252#11"/>
    </vehicle>
    <vehicle id="veh65" type="veh_passenger" depart="426.36" departLane="best" departSpeed="max">
        <route edges="-494338607#1 -494338607#0 -186593866#4 182107014#1 182107014#2 182107014#4 182107014#5 182107014#6 182107014#7 182107014#8 -88191070#1"/>
    </vehicle>
    <vehicle id="veh66" type="veh_passenger" depart="432.92" departLane="best">
        <route edges="91198573 114444371#3 114444371#4 -190256571#5 -190256571#4 -190256571#3 -190256571#2 -190256571#1 -190256571#0 725238125 -725238125 -30270057#3 -30270057#2 -30270057#1 353967234#4"/>
    </vehicle>
    <vehicle id="veh67" type="veh_passenger" depart="439.48" departLane="best" departSpeed="max">
        <route edges="114444363#0 114444363#1 114444358 -732022517#2 -732022517#1 -732022517#0 -785902529 -114444371#4 -114444371#3 -114444371#2 -114444371#1 -114444371#0 182107018#0 182107018#1 182107018#2 186593866#0"/>
    </vehicle>
    <vehicle id="veh68" type="veh_passenger" depart="446.04" departLane="best">
        <route edges="-190256571#4 -190256571#3 -190256571#2 -190256571#1 -190256571#0 725238124 619284830 490613988#0 490613988#1 182107014#8 494667421#0 494667421#1 -494667421#1"/>
    </vehicle>
    <vehicle id="veh69" type="veh_passenger" depart="452.60" departLane="best">
        <route edges="-87219577#1 -87219577#0 182107014#0 182107014#1 182107014#2 182107014#4 182107014#5 182107014#6 182107014#7 -490613988#1 -490613988#0 -619284830 -725238124 725238125 88191073 243254143"/>
    </vehicle>
    <vehicle id="veh70" type="veh_passenger" depart="459.16" departLane="best">
        <route edges="-182107019#0 848673662 848673665#0 -785902540#2 -785902540#1 -69549987#4 -69549987#3 -69549987#2 -69549987#1 -69549987#0 31954377#4"/>
    </vehicle>
    <vehicle id="veh71" type="veh_passenger" depart="465.72" departLane="best">
        <route edges="-494343252#2 -494343252#1 -494343252#0 494343251#4 494343251#5 494343249 243254025#0 243254025#1 243254025#2 243254025#3 183669338#0 819696886"/>
    </vehicle>
    <vehicle id="veh72" type="veh_passenger" depart="472.28" departLane="best">
        <route edges="690847317#0 690847317#1 -186593866#4 182107014#1 182107014#2 182107014#4 182107014#5 182107014#6 182107014#7 -182107014#7"/>
    </vehicle>
    <vehicle id="veh73" type="veh_passenger" depart="478.84" departLane="best">
        <route edges="-494343252#7 494343252#6 30270057#2 30270057#3 725238124 619284830 490613988#0 490613988#1 -182107014#7 -182107014#6 -182107014#5 -182107014#4 -182107014#2 -182107014#1 -182107014#0 87219577#0 87219577#1 464366516#0 464366516#1"/>
    </vehicle>
    <vehicle id="veh74" type="veh_passenger" depart="485.40" departLane="best">
        <route edges="-494343252#12 -494343252#11 -494343252#10 -494343252#9 -494343252#8 30270057#2 30270057#3 725238125 190256572#0 190256572#1 -190256572#1"/>
    </vehicle>
    <vehicle id="veh75" type="veh_passenger" depart="491.95" departLane="best" departSpeed="max">
        <route edges="87219578#0 -182107019#2 -182107019#1 -182107019#0 848673662 848673665#0 -785902540#2 -785902540#1 -785902540#0 -785902529 -190256571#5 -190256571#4 -190256571#3 -190256571#2 -190256571#1 -190256571#0 725238125 190256572#0 190256572#1 190256572#2 190256572#3 190256572#5 1052642613#0 1052642613#1 243254025#0 243254025#1 243254025#2"/>
    </vehicle>
    <vehicle id="veh76" type="veh_passenger" depart="498.51" departLane="best">
        <route edges="136178319#2 -88191073 -725238125 190256571#0 190256571#1 190256571#2 190256571#3 190256571#4 190256571#5 785902529 785902540#0 785902540#1 785902540#2 178414934#1 848673667 182107019#0 182107019#1 182107019#2 182107019#3 494667412#1"/>
    </vehicle>
    <vehicle id="veh77" type="veh_passenger" depart="505.07" departLane="best">
        <route edges="494343252#0 494343252#1 494343252#2 494343252#3 494343252#4 494343252#5 494343252#6 30270057#2 30270057#3 725238124 619284830 490613988#0 490613988#1 -182107014#7 -182107014#6 -182107014#5 -182107014#4 -182107014#2 -182107014#1 186593866#4 494338607#0 -494338607#0"/>
    </vehicle>
    <vehicle id="veh78" type="veh_passenger" depart="511.63" departLane="best" departSpeed="max">
        <route edges="-183669338#2 -183669338#1 -183669338#0 -494667421#5 -494667421#3 -494667421#2 -494667421#1 -494667421#0 -182107014#8 -182107014#7 -182107014#6 -182107014#5 -182107014#4 -182107014#2 -182107014#1 -182107014#0 87219577#0 87219577#1 494667412#0 182107019#4 182107019#5 181547908"/>
    </vehicle>
    <vehicle id="veh79" type="veh_passenger" depart="518.19" departLane="best">
        <route edges="114444358 -732022517#2 -732022517#1 -732022517#0 -785902529 -114444371#4 -114444371#3 -114444371#2 -114444371#1 -114444371#0 182107018#0"/>
    </vehicle>
    <vehicle id="veh80" type="veh_passenger" depart="524.75" departLane="best" departSpeed="max">
        <route edges="1052634123 -949925125 263159366#0 263159366#1 263159366#2 263159366#3 30270057#0 30270057#1 30270057#2 30270057#3 190256571#0 190256571#1 190256571#2 190256571#3 190256571#4 190256571#5 785902529 785902540#0 785902540#1 785902540#2 178414934#1 -88191155"/>
    </vehicle>
    <vehicle id="veh81" type="veh_passenger" depart="531.31" departLane="best">
        <route edges="690847317#1 -186593866#4 182107014#1 182107014#2 182107014#4 182107014#5 182107014#6 182107014#7 -490613988#1 -490613988#0 -619284830 -725238124 725238125 -725238125"/>
    </vehicle>
    <vehicle id="veh82" type="veh_passenger" depart="537.87" departLane="best">
        <route edges="1052887757#1 243254030#1 243254030#2 243254030#3 243254030#4 243254030#5 243254025#0 243254025#1 243254025#2 190256584#0 190256584#1 190256584#2 190256584#3 190256584#5 190256584#6 190256584#7 190256584#8 190256584#9 -182107018#12 -182107018#8 -182107018#7 -182107018#6 -182107018#4 -182107018#3 -182107018#2 -182107018#1 -182107018#0 182107016 848673662 848673665#0 -785902540#2 -785902540#1"/>
    </vehicle>
    <vehicle id="veh83" type="veh_passenger" depart="544.43" departLane="best">
        <route edges="-494667421#3 -494667421#2 -494667421#1 -494667421#0 -182107014#8 -182107014#7 -182107014#6 -182107014#5 -182107014#4 -182107014#2 -182107014#1 -182107014#0 182107015#0 182107015#1 182107015#2 182107015#3 182107016 848673662 848673666"/>
    </vehicle>
    <vehicle id="veh84" type="veh_passenger" depart="550.99" departLane="best">
        <route edges="182107019#3 -182107019#3 -182107019#2 182107017 182107014#0 182107014#1 182107014#2 182107014#4 182107014#5 182107014#6 182107014#7 182107014#8 494667421#0 494667421#1 494667421#2 494667421#3 494667421#4 1052887757#1 243254030#1 243254030#2 243254030#3 243254030#4 243254030#5 182624929 182624927 -326348400 -178419461"/>
    </vehicle>
    <vehicle id="veh85" type="veh_passenger" depart="557.55" departLane="best">
        <route edges="949925125 -1052634123 1052634123 -949925125 263159366#0 263159366#1 263159366#2 263159366#3 30270057#0 30270057#1 30270057#2 30270057#3 190256571#0 190256571#1 190256571#2 190256571#3 190256571#4 190256571#5 -114444371#4 69549987#4"/>
    </vehicle>
    <vehicle id="veh86" type="veh_passenger" depart="564.11" departLane="best">
        <route edges="88191087#4 785902540#2 178414934#1 848673667 182107019#0 182107019#1 182107017 87219577#0"/>
    </vehicle>
    <vehicle id="veh87" type="veh_passenger" depart="570.67" departLane="best">
        <route edges="494667421#0 -494667421#0 -182107014#8 -490613988#1 -490613988#0 -619284830 -725238124 -30270057#3 -30270057#2"/>
    </vehicle>
    <vehicle id="veh88" type="veh_passenger" depart="577.23" departLane="best" departSpeed="max">
        <route edges="178321574 182107017 182107014#0 182107014#1 182107014#2 182107014#4 182107014#5 182107014#6 182107014#7 -490613988#1 -490613988#0 -619284830 -725238124 -30270057#3 -30270057#2 -494343252#7 -494343252#5"/>
    </vehicle>
    <vehicle id="veh89" type="veh_passenger" depart="583.79" departLane="best" departSpeed="max">
        <route edges="1052634123 -949925125 263159366#0 263159366#1 263159366#2 263159366#3 30270057#0 30270057#1 30270057#2 30270057#3 725238124 619284830 490613988#0 490613988#1 -182107014#7 -182107014#6 -182107014#5 -182107014#4 -182107014#2"/>
    </vehicle>
    <vehicle id="veh90" type="veh_passenger" depart="590.35" departLane="best" departSpeed="max">
        <route edges="-942123887 -494667421#0 -182107014#8 -182107014#7 -182107014#6 -182107014#5 -182107014#4 -182107014#2 -182107014#1 -182107014#0 182107015#0 88336595#0 88336595#1"/>
    </vehicle>
    <vehicle id="veh91" type="veh_passenger" depart="596.91" departLane="best">
        <route edges="-501095917 -88191063#0 -182107018#4 -182107018#3 -182107018#2 -182107018#1 -182107018#0 182107016 182107019#0 182107019#1 182107019#2 182107019#3 494667412#1"/>
    </vehicle>
    <vehicle id="veh92" type="veh_passenger" depart="603.46" departLane="best">
        <route edges="114444363#1 114444358 -732022517#2 -732022517#1 -732022517#0 785902540#0 785902540#1 785902540#2 178414934#1 848673667 182107019#0 182107019#1 182107019#2 182107019#3 182107019#4 182107019#5 181547908"/>
    </vehicle>
    <vehicle id="veh93" type="veh_passenger" depart="610.02" departLane="best">
        <route edges="88191079 -190256571#4 -190256571#3 -190256571#2 -190256571#1 -190256571#0 725238124 619284830 490613988#0 490613988#1 182107014#8 494667421#0 942123887"/>
    </vehicle>
    <vehicle id="veh94" type="veh_passenger" depart="616.58" departLane="best">