<?xml version="1.0" encoding="UTF-8"?>

<!-- generated on 2022-10-20 22:47:08 by Eclipse SUMO sumo Version 1.10.0
<configuration xmlns:xsi="http://www.w3.org/2001/XMLSchema-instance" xsi:noNamespaceSchemaLocation="http://sumo.dlr.de/xsd/sumoConfiguration.xsd">

    <input>
        <net-file value="Simulation_Environment\Main%20DQN\osm.net.xml"/>
        <additional-files value="Simulation_Environment\Main%20DQN\osm.poly.xml"/>
    </input>

    <output>
        <tripinfo-output value="Simulation_Environment\Main%20DQN\Results\tripinfo.xml"/>
    </output>

    <processing>
        <ignore-route-errors value="true"/>
    </processing>

    <routing>
        <device.rerouting.adaptation-steps value="18"/>
        <device.rerouting.adaptation-interval value="10"/>
    </routing>

    <report>
        <verbose value="true"/>
        <duration-log.statistics value="true"/>
        <no-step-log value="true"/>
    </report>

    <traci_server>
        <remote-port value="52559"/>
    </traci_server>

    <gui_only>
        <gui-settings-file value="Simulation_Environment\Main%20DQN\osm.view.xml"/>
        <start value="true"/>
    </gui_only>

</configuration>
