<routes xmlns:xsi="http://www.w3.org/2001/XMLSchema-instance" xsi:noNamespaceSchemaLocation="http://sumo.dlr.de/xsd/routes_file.xsd">
<vType id="bicycle_tricycle" accel="3.0" decel="4.5" sigma="0.5" length="2.0" minGap="0.5" maxSpeed="15.0" guiShape="bicycle" color="255,0,0" />

    <vehicle id="a0_0" depart="0.00" type="bicycle_tricycle">
        <route edges="east_recto_0 east_recto_1 east_recto_2" />
    </vehicle>
    <vehicle id="a0_1" depart="81.82" type="bicycle_tricycle">
        <route edges="west_recto_0 west_recto_1 west_recto_2" />
    </vehicle>
    <vehicle id="a0_2" depart="163.64" type="bicycle_tricycle">
        <route edges="east_recto_1 north_roa_0 west_luna_2 south_osmena_1 west_florentino_0" />
    </vehicle>
    <vehicle id="a0_3" depart="245.45" type="bicycle_tricycle">
        <route edges="north_osmena_2 east_luna_0 north_roa_1" />
    </vehicle>
    <vehicle id="a0_4" depart="327.27" type="bicycle_tricycle">
        <route edges="east_recto_0 east_recto_1 north_roa_0" />
    </vehicle>
    <vehicle id="a0_5" depart="409.09" type="bicycle_tricycle">
        <route edges="west_luna_1 west_luna_2 north_osmena_3" />
    </vehicle>
    <vehicle id="a0_6" depart="490.91" type="bicycle_tricycle">
        <route edges="south_corrales_1 west_recto_1 west_recto_2" />
    </vehicle>
    <vehicle id="a0_7" depart="572.73" type="bicycle_tricycle">
        <route edges="east_luna_0 east_luna_1 south_corrales_1" />
    </vehicle>
    <vehicle id="a0_8" depart="654.55" type="bicycle_tricycle">
        <route edges="south_corrales_0 west_luna_1 west_luna_2 north_osmena_3" />
    </vehicle>
    <vehicle id="a0_9" depart="736.36" type="bicycle_tricycle">
        <route edges="south_roa_0 south_roa_1 east_recto_2 south_corrales_2" />
    </vehicle>
    <vehicle id="a0_10" depart="818.18" type="bicycle_tricycle">
        <route edges="east_luna_0 north_roa_1" />
    </vehicle>
    <vehicle id="a0_11" depart="900.00" type="bicycle_tricycle">
        <route edges="west_recto_1 west_recto_2 west_recto_3" />
    </vehicle>
    <vehicle id="a0_12" depart="981.82" type="bicycle_tricycle">
        <route edges="south_roa_0 east_luna_1 south_corrales_1" />
    </vehicle>
    <vehicle id="a0_13" depart="1063.64" type="bicycle_tricycle">
        <route edges="east_florentino_0 south_osmena_2 south_osmena_3" />
    </vehicle>
    <vehicle id="a0_14" depart="1145.45" type="bicycle_tricycle">
        <route edges="south_corrales_1 west_recto_1 west_recto_2" />
    </vehicle>
    <vehicle id="a0_15" depart="1227.27" type="bicycle_tricycle">
        <route edges="east_florentino_0 north_osmena_2 north_osmena_3" />
    </vehicle>
    <vehicle id="a0_16" depart="1309.09" type="bicycle_tricycle">
        <route edges="south_corrales_0 south_corrales_1 west_recto_1 west_recto_2 south_osmena_3" />
    </vehicle>
    <vehicle id="a0_17" depart="1390.91" type="bicycle_tricycle">
        <route edges="north_osmena_2 east_luna_0 east_luna_1 south_corrales_1" />
    </vehicle>
    <vehicle id="a0_18" depart="1472.73" type="bicycle_tricycle">
        <route edges="south_roa_0 south_roa_1 east_recto_2" />
    </vehicle>
    <vehicle id="a0_19" depart="1554.55" type="bicycle_tricycle">
        <route edges="west_luna_1 west_luna_2 south_osmena_1 west_florentino_0" />
    </vehicle>
    <vehicle id="a0_20" depart="1636.36" type="bicycle_tricycle">
        <route edges="west_luna_0 west_luna_1 north_roa_1" />
    </vehicle>
    <vehicle id="a0_21" depart="1718.18" type="bicycle_tricycle">
        <route edges="west_luna_0 west_luna_1 north_roa_1" />
    </vehicle>
    <vehicle id="a0_22" depart="1800.00" type="bicycle_tricycle">
        <route edges="north_osmena_2 east_luna_0 east_luna_1 south_corrales_1 west_recto_1" />
    </vehicle>
    <vehicle id="a0_23" depart="1881.82" type="bicycle_tricycle">
        <route edges="west_luna_0 west_luna_1 south_roa_1 west_recto_2 west_recto_3" />
    </vehicle>
    <vehicle id="a0_24" depart="1963.64" type="bicycle_tricycle">
        <route edges="south_roa_1 west_recto_2 north_osmena_1 north_osmena_2 east_luna_0 east_luna_1 south_corrales_1 west_recto_1" />
    </vehicle>
    <vehicle id="a0_25" depart="2045.45" type="bicycle_tricycle">
        <route edges="north_osmena_2 east_luna_0 east_luna_1 south_corrales_1 west_recto_1" />
    </vehicle>
    <vehicle id="a0_26" depart="2127.27" type="bicycle_tricycle">
        <route edges="south_corrales_0 west_luna_1 west_luna_2 north_osmena_3" />
    </vehicle>
    <vehicle id="a0_27" depart="2209.09" type="bicycle_tricycle">
        <route edges="south_osmena_2 east_recto_1 north_roa_0 north_roa_1" />
    </vehicle>
    <vehicle id="a0_28" depart="2290.91" type="bicycle_tricycle">
        <route edges="east_florentino_0 north_osmena_2 east_luna_0 north_roa_1" />
    </vehicle>
    <vehicle id="a0_29" depart="2372.73" type="bicycle_tricycle">
        <route edges="west_luna_1 west_luna_2 north_osmena_3" />
    </vehicle>
    <vehicle id="a0_30" depart="2454.55" type="bicycle_tricycle">
        <route edges="south_roa_0 south_roa_1 east_recto_2 south_corrales_2" />
    </vehicle>
    <vehicle id="a0_31" depart="2536.36" type="bicycle_tricycle">
        <route edges="south_roa_0 west_luna_2 south_osmena_1 west_florentino_0" />
    </vehicle>
    <vehicle id="a0_32" depart="2618.18" type="bicycle_tricycle">
        <route edges="east_recto_1 north_roa_0 north_roa_1" />
    </vehicle>
    <vehicle id="a0_33" depart="2700.00" type="bicycle_tricycle">
        <route edges="west_recto_0 west_recto_1 west_recto_2 west_recto_3" />
    </vehicle>
    <vehicle id="a0_34" depart="2781.82" type="bicycle_tricycle">
        <route edges="north_osmena_0 north_osmena_1 west_florentino_0" />
    </vehicle>
    <vehicle id="a0_35" depart="2863.64" type="bicycle_tricycle">
        <route edges="south_roa_0 west_luna_2 south_osmena_1 west_florentino_0" />
    </vehicle>
    <vehicle id="a0_36" depart="2945.45" type="bicycle_tricycle">
        <route edges="south_osmena_0 east_luna_0 south_roa_1" />
    </vehicle>
    <vehicle id="a0_37" depart="3027.27" type="bicycle_tricycle">
        <route edges="east_recto_0 east_recto_1 east_recto_2 north_corrales_1 east_luna_2" />
    </vehicle>
    <vehicle id="a0_38" depart="3109.09" type="bicycle_tricycle">
        <route edges="north_corrales_0 west_recto_1 north_roa_0 north_roa_1" />
    </vehicle>
    <vehicle id="a0_39" depart="3190.91" type="bicycle_tricycle">
        <route edges="south_corrales_0 west_luna_1 west_luna_2 south_osmena_1 west_florentino_0" />
    </vehicle>
    <vehicle id="a0_40" depart="3272.73" type="bicycle_tricycle">
        <route edges="south_osmena_0 south_osmena_1 south_osmena_2 west_recto_3" />
    </vehicle>
    <vehicle id="a0_41" depart="3354.55" type="bicycle_tricycle">
        <route edges="south_osmena_2 east_recto_1 north_roa_0 east_luna_1 south_corrales_1 west_recto_1 west_recto_2" />
    </vehicle>
    <vehicle id="a0_42" depart="3436.36" type="bicycle_tricycle">
        <route edges="south_roa_0 east_luna_1 south_corrales_1 west_recto_1" />
    </vehicle>
    <vehicle id="a0_43" depart="3518.18" type="bicycle_tricycle">
        <route edges="west_luna_0 west_luna_1 south_roa_1 east_recto_2 north_corrales_1 east_luna_2" />
    </vehicle>

    <vehicle id="a3600_0" depart="3600.00" type="bicycle_tricycle">
        <route edges="south_roa_0 west_luna_2 south_osmena_1 west_florentino_0" />
    </vehicle>
    <vehicle id="a3600_1" depart="3670.59" type="bicycle_tricycle">
        <route edges="west_luna_0 west_luna_1 north_roa_1" />
    </vehicle>
    <vehicle id="a3600_2" depart="3741.18" type="bicycle_tricycle">
        <route edges="west_luna_0 west_luna_1 west_luna_2 south_osmena_1" />
    </vehicle>
    <vehicle id="a3600_3" depart="3811.76" type="bicycle_tricycle">
        <route edges="west_luna_1 south_roa_1 west_recto_2 west_recto_3" />
    </vehicle>
    <vehicle id="a3600_4" depart="3882.35" type="bicycle_tricycle">
        <route edges="south_osmena_0 east_luna_0 north_roa_1" />
    </vehicle>
    <vehicle id="a3600_5" depart="3952.94" type="bicycle_tricycle">
        <route edges="east_recto_0 east_recto_1" />
    </vehicle>
    <vehicle id="a3600_6" depart="4023.53" type="bicycle_tricycle">
        <route edges="south_osmena_1 south_osmena_2 south_osmena_3" />
    </vehicle>
    <vehicle id="a3600_7" depart="4094.12" type="bicycle_tricycle">
        <route edges="north_osmena_0 north_osmena_1" />
    </vehicle>
    <vehicle id="a3600_8" depart="4164.71" type="bicycle_tricycle">
        <route edges="east_recto_0 east_recto_1 east_recto_2 south_corrales_2" />
    </vehicle>
    <vehicle id="a3600_9" depart="4235.29" type="bicycle_tricycle">
        <route edges="north_corrales_0 west_recto_1 west_recto_2 west_recto_3" />
    </vehicle>
    <vehicle id="a3600_10" depart="4305.88" type="bicycle_tricycle">
        <route edges="west_luna_0 west_luna_1 south_roa_1 west_recto_2 west_recto_3" />
    </vehicle>
    <vehicle id="a3600_11" depart="4376.47" type="bicycle_tricycle">
        <route edges="south_corrales_1 west_recto_1 west_recto_2" />
    </vehicle>
    <vehicle id="a3600_12" depart="4447.06" type="bicycle_tricycle">
        <route edges="south_roa_0 east_luna_1 south_corrales_1" />
    </vehicle>
    <vehicle id="a3600_13" depart="4517.65" type="bicycle_tricycle">
        <route edges="west_recto_1 west_recto_2 west_recto_3" />
    </vehicle>
    <vehicle id="a3600_14" depart="4588.24" type="bicycle_tricycle">
        <route edges="south_osmena_2 east_recto_1 east_recto_2" />
    </vehicle>
    <vehicle id="a3600_15" depart="4658.82" type="bicycle_tricycle">
        <route edges="north_osmena_2 east_luna_0 east_luna_1" />
    </vehicle>
    <vehicle id="a3600_16" depart="4729.41" type="bicycle_tricycle">
        <route edges="south_roa_0 south_roa_1 west_recto_2 south_osmena_3" />
    </vehicle>
    <vehicle id="a3600_17" depart="4800.00" type="bicycle_tricycle">
        <route edges="west_recto_1 west_recto_2 west_recto_3" />
    </vehicle>
    <vehicle id="a3600_18" depart="4870.59" type="bicycle_tricycle">
        <route edges="east_florentino_0 north_osmena_2 east_luna_0 east_luna_1" />
    </vehicle>
    <vehicle id="a3600_19" depart="4941.18" type="bicycle_tricycle">
        <route edges="west_recto_1 north_roa_0 east_luna_1 south_corrales_1" />
    </vehicle>
    <vehicle id="a3600_20" depart="5011.76" type="bicycle_tricycle">
        <route edges="west_luna_0 west_luna_1 west_luna_2 north_osmena_3" />
    </vehicle>
    <vehicle id="a3600_21" depart="5082.35" type="bicycle_tricycle">
        <route edges="north_osmena_2 east_luna_0 east_luna_1 south_corrales_1 west_recto_1" />
    </vehicle>
    <vehicle id="a3600_22" depart="5152.94" type="bicycle_tricycle">
        <route edges="north_roa_0 north_roa_1" />
    </vehicle>
    <vehicle id="a3600_23" depart="5223.53" type="bicycle_tricycle">
        <route edges="south_corrales_1 west_recto_1 west_recto_2" />
    </vehicle>
    <vehicle id="a3600_24" depart="5294.12" type="bicycle_tricycle">
        <route edges="south_roa_0 east_luna_1 south_corrales_1" />
    </vehicle>
    <vehicle id="a3600_25" depart="5364.71" type="bicycle_tricycle">
        <route edges="west_luna_0 west_luna_1 west_luna_2 south_osmena_1" />
    </vehicle>
    <vehicle id="a3600_26" depart="5435.29" type="bicycle_tricycle">
        <route edges="west_luna_1 west_luna_2 north_osmena_3" />
    </vehicle>
    <vehicle id="a3600_27" depart="5505.88" type="bicycle_tricycle">
        <route edges="south_corrales_0 south_corrales_1 west_recto_1 west_recto_2 west_recto_3" />
    </vehicle>
    <vehicle id="a3600_28" depart="5576.47" type="bicycle_tricycle">
        <route edges="south_roa_0 south_roa_1" />
    </vehicle>
    <vehicle id="a3600_29" depart="5647.06" type="bicycle_tricycle">
        <route edges="east_florentino_0 north_osmena_2 east_luna_0 south_roa_1 west_recto_2" />
    </vehicle>
    <vehicle id="a3600_30" depart="5717.65" type="bicycle_tricycle">
        <route edges="north_corrales_0 west_recto_1 west_recto_2" />
    </vehicle>
    <vehicle id="a3600_31" depart="5788.24" type="bicycle_tricycle">
        <route edges="south_osmena_0 south_osmena_1" />
    </vehicle>
    <vehicle id="a3600_32" depart="5858.82" type="bicycle_tricycle">
        <route edges="east_luna_0 east_luna_1 south_corrales_1 west_recto_1" />
    </vehicle>
    <vehicle id="a3600_33" depart="5929.41" type="bicycle_tricycle">
        <route edges="east_recto_0 north_osmena_1" />
    </vehicle>
    <vehicle id="a3600_34" depart="6000.00" type="bicycle_tricycle">
        <route edges="north_osmena_2 east_luna_0 north_roa_1" />
    </vehicle>
    <vehicle id="a3600_35" depart="6070.59" type="bicycle_tricycle">
        <route edges="west_luna_1 west_luna_2" />
    </vehicle>
    <vehicle id="a3600_36" depart="6141.18" type="bicycle_tricycle">
        <route edges="south_roa_0 south_roa_1 east_recto_2 north_corrales_1 north_corrales_2" />
    </vehicle>
    <vehicle id="a3600_37" depart="6211.76" type="bicycle_tricycle">
        <route edges="west_recto_1 west_recto_2" />
    </vehicle>
    <vehicle id="a3600_38" depart="6282.35" type="bicycle_tricycle">
        <route edges="west_luna_0 west_luna_1 west_luna_2 north_osmena_3" />
    </vehicle>
    <vehicle id="a3600_39" depart="6352.94" type="bicycle_tricycle">
        <route edges="south_roa_0 west_luna_2 south_osmena_1" />
    </vehicle>
    <vehicle id="a3600_40" depart="6423.53" type="bicycle_tricycle">
        <route edges="north_osmena_2 east_luna_0 north_roa_1" />
    </vehicle>
    <vehicle id="a3600_41" depart="6494.12" type="bicycle_tricycle">
        <route edges="south_corrales_1 west_recto_1 north_roa_0 north_roa_1" />
    </vehicle>
    <vehicle id="a3600_42" depart="6564.71" type="bicycle_tricycle">
        <route edges="west_luna_0 west_luna_1 north_roa_1" />
    </vehicle>
    <vehicle id="a3600_43" depart="6635.29" type="bicycle_tricycle">
        <route edges="east_luna_1 south_corrales_1 west_recto_1 west_recto_2" />
    </vehicle>
    <vehicle id="a3600_44" depart="6705.88" type="bicycle_tricycle">
        <route edges="north_roa_0 west_luna_2 north_osmena_3" />
    </vehicle>
    <vehicle id="a3600_45" depart="6776.47" type="bicycle_tricycle">
        <route edges="east_recto_0 east_recto_1 north_roa_0" />
    </vehicle>
    <vehicle id="a3600_46" depart="6847.06" type="bicycle_tricycle">
        <route edges="north_roa_0 north_roa_1" />
    </vehicle>
    <vehicle id="a3600_47" depart="6917.65" type="bicycle_tricycle">
        <route edges="east_florentino_0 north_osmena_2 east_luna_0 east_luna_1" />
    </vehicle>
    <vehicle id="a3600_48" depart="6988.24" type="bicycle_tricycle">
        <route edges="north_corrales_0 west_recto_1 west_recto_2 north_osmena_1 north_osmena_2 north_osmena_3" />
    </vehicle>
    <vehicle id="a3600_49" depart="7058.82" type="bicycle_tricycle">
        <route edges="east_recto_0 east_recto_1" />
    </vehicle>
    <vehicle id="a3600_50" depart="7129.41" type="bicycle_tricycle">
        <route edges="east_recto_0 east_recto_1 east_recto_2 north_corrales_1 north_corrales_2" />
    </vehicle>

    <vehicle id="a7200_0" depart="7200.00" type="bicycle_tricycle">
        <route edges="west_luna_0 west_luna_1 north_roa_1" />
    </vehicle>
    <vehicle id="a7200_1" depart="7251.43" type="bicycle_tricycle">
        <route edges="south_roa_0 east_luna_1 south_corrales_1" />
    </vehicle>
    <vehicle id="a7200_2" depart="7302.86" type="bicycle_tricycle">
        <route edges="south_osmena_0 south_osmena_1" />
    </vehicle>
    <vehicle id="a7200_3" depart="7354.29" type="bicycle_tricycle">
        <route edges="south_corrales_1 west_recto_1 west_recto_2" />
    </vehicle>
    <vehicle id="a7200_4" depart="7405.71" type="bicycle_tricycle">
        <route edges="east_florentino_0 north_osmena_2 east_luna_0 east_luna_1 south_corrales_1" />
    </vehicle>
    <vehicle id="a7200_5" depart="7457.14" type="bicycle_tricycle">
        <route edges="north_corrales_0 west_recto_1 west_recto_2" />
    </vehicle>
    <vehicle id="a7200_6" depart="7508.57" type="bicycle_tricycle">
        <route edges="east_luna_1 south_corrales_1 west_recto_1 west_recto_2" />
    </vehicle>
    <vehicle id="a7200_7" depart="7560.00" type="bicycle_tricycle">
        <route edges="east_luna_1 south_corrales_1 west_recto_1 west_recto_2" />
    </vehicle>
    <vehicle id="a7200_8" depart="7611.43" type="bicycle_tricycle">
        <route edges="east_florentino_0 south_osmena_2 south_osmena_3" />
    </vehicle>
    <vehicle id="a7200_9" depart="7662.86" type="bicycle_tricycle">
        <route edges="south_corrales_0 west_luna_1 north_roa_1" />
    </vehicle>
    <vehicle id="a7200_10" depart="7714.29" type="bicycle_tricycle">
        <route edges="east_recto_1 east_recto_2 north_corrales_1 north_corrales_2" />
    </vehicle>
    <vehicle id="a7200_11" depart="7765.71" type="bicycle_tricycle">
        <route edges="east_recto_0 east_recto_1" />
    </vehicle>
    <vehicle id="a7200_12" depart="7817.14" type="bicycle_tricycle">
        <route edges="west_luna_1 south_roa_1 east_recto_2 north_corrales_1" />
    </vehicle>
    <vehicle id="a7200_13" depart="7868.57" type="bicycle_tricycle">
        <route edges="south_corrales_1 west_recto_1 west_recto_2" />
    </vehicle>
    <vehicle id="a7200_14" depart="7920.00" type="bicycle_tricycle">
        <route edges="north_corrales_0 west_recto_1 west_recto_2" />
    </vehicle>
    <vehicle id="a7200_15" depart="7971.43" type="bicycle_tricycle">
        <route edges="east_recto_0 east_recto_1" />
    </vehicle>
    <vehicle id="a7200_16" depart="8022.86" type="bicycle_tricycle">
        <route edges="north_osmena_0 east_recto_1 east_recto_2 north_corrales_1 east_luna_2" />
    </vehicle>
    <vehicle id="a7200_17" depart="8074.29" type="bicycle_tricycle">
        <route edges="north_corrales_0 west_recto_1 west_recto_2 west_recto_3" />
    </vehicle>
    <vehicle id="a7200_18" depart="8125.71" type="bicycle_tricycle">
        <route edges="west_recto_2 west_recto_3" />
    </vehicle>
    <vehicle id="a7200_19" depart="8177.14" type="bicycle_tricycle">
        <route edges="south_corrales_0 west_luna_1 west_luna_2" />
    </vehicle>
    <vehicle id="a7200_20" depart="8228.57" type="bicycle_tricycle">
        <route edges="south_osmena_1 south_osmena_2 east_recto_1 north_roa_0 north_roa_1" />
    </vehicle>
    <vehicle id="a7200_21" depart="8280.00" type="bicycle_tricycle">
        <route edges="west_recto_2 west_recto_3" />
    </vehicle>
    <vehicle id="a7200_22" depart="8331.43" type="bicycle_tricycle">
        <route edges="west_recto_1 west_recto_2 west_recto_3" />
    </vehicle>
    <vehicle id="a7200_23" depart="8382.86" type="bicycle_tricycle">
        <route edges="west_recto_1 west_recto_2 west_recto_3" />
    </vehicle>
    <vehicle id="a7200_24" depart="8434.29" type="bicycle_tricycle">
        <route edges="north_corrales_0 west_recto_1 west_recto_2 west_recto_3" />
    </vehicle>
    <vehicle id="a7200_25" depart="8485.71" type="bicycle_tricycle">
        <route edges="east_recto_0 north_osmena_1 north_osmena_2 north_osmena_3" />
    </vehicle>
    <vehicle id="a7200_26" depart="8537.14" type="bicycle_tricycle">
        <route edges="east_florentino_0 north_osmena_2 east_luna_0 east_luna_1 south_corrales_1" />
    </vehicle>
    <vehicle id="a7200_27" depart="8588.57" type="bicycle_tricycle">
        <route edges="south_roa_1 west_recto_2 south_osmena_3" />
    </vehicle>
    <vehicle id="a7200_28" depart="8640.00" type="bicycle_tricycle">
        <route edges="north_osmena_0 west_recto_3" />
    </vehicle>
    <vehicle id="a7200_29" depart="8691.43" type="bicycle_tricycle">
        <route edges="north_corrales_0 west_recto_1 west_recto_2" />
    </vehicle>
    <vehicle id="a7200_30" depart="8742.86" type="bicycle_tricycle">
        <route edges="north_corrales_0 west_recto_1 west_recto_2" />
    </vehicle>
    <vehicle id="a7200_31" depart="8794.29" type="bicycle_tricycle">
        <route edges="west_recto_1 north_roa_0 east_luna_1 east_luna_2" />
    </vehicle>
    <vehicle id="a7200_32" depart="8845.71" type="bicycle_tricycle">
        <route edges="east_recto_0 east_recto_1" />
    </vehicle>
    <vehicle id="a7200_33" depart="8897.14" type="bicycle_tricycle">
        <route edges="south_roa_0 east_luna_1 south_corrales_1" />
    </vehicle>
    <vehicle id="a7200_34" depart="8948.57" type="bicycle_tricycle">
        <route edges="south_roa_0 west_luna_2" />
    </vehicle>
    <vehicle id="a7200_35" depart="9000.00" type="bicycle_tricycle">
        <route edges="west_luna_1 west_luna_2 south_osmena_1 west_florentino_0" />
    </vehicle>
    <vehicle id="a7200_36" depart="9051.43" type="bicycle_tricycle">
        <route edges="south_corrales_1 west_recto_1 west_recto_2" />
    </vehicle>
    <vehicle id="a7200_37" depart="9102.86" type="bicycle_tricycle">
        <route edges="east_recto_0 south_osmena_3" />
    </vehicle>
    <vehicle id="a7200_38" depart="9154.29" type="bicycle_tricycle">
        <route edges="west_recto_2 west_recto_3" />
    </vehicle>
    <vehicle id="a7200_39" depart="9205.71" type="bicycle_tricycle">
        <route edges="south_roa_0 south_roa_1 east_recto_2" />
    </vehicle>
    <vehicle id="a7200_40" depart="9257.14" type="bicycle_tricycle">
        <route edges="north_osmena_2 east_luna_0 east_luna_1 south_corrales_1 west_recto_1" />
    </vehicle>
    <vehicle id="a7200_41" depart="9308.57" type="bicycle_tricycle">
        <route edges="south_corrales_0 west_luna_1 west_luna_2 south_osmena_1" />
    </vehicle>
    <vehicle id="a7200_42" depart="9360.00" type="bicycle_tricycle">
        <route edges="south_roa_0 south_roa_1 west_recto_2 north_osmena_1 north_osmena_2" />
    </vehicle>
    <vehicle id="a7200_43" depart="9411.43" type="bicycle_tricycle">
        <route edges="south_roa_0 west_luna_2 north_osmena_3" />
    </vehicle>
    <vehicle id="a7200_44" depart="9462.86" type="bicycle_tricycle">
        <route edges="south_osmena_0 east_luna_0 north_roa_1" />
    </vehicle>
    <vehicle id="a7200_45" depart="9514.29" type="bicycle_tricycle">
        <route edges="south_osmena_2 south_osmena_3" />
    </vehicle>
    <vehicle id="a7200_46" depart="9565.71" type="bicycle_tricycle">
        <route edges="west_luna_0 west_luna_1 west_luna_2 south_osmena_1" />
    </vehicle>
    <vehicle id="a7200_47" depart="9617.14" type="bicycle_tricycle">
        <route edges="east_recto_1 north_roa_0 east_luna_1 south_corrales_1" />
    </vehicle>
    <vehicle id="a7200_48" depart="9668.57" type="bicycle_tricycle">
        <route edges="east_luna_0 south_roa_1" />
    </vehicle>
    <vehicle id="a7200_49" depart="9720.00" type="bicycle_tricycle">
        <route edges="west_luna_0 west_luna_1 west_luna_2" />
    </vehicle>
    <vehicle id="a7200_50" depart="9771.43" type="bicycle_tricycle">
        <route edges="south_roa_0 south_roa_1 west_recto_2" />
    </vehicle>
    <vehicle id="a7200_51" depart="9822.86" type="bicycle_tricycle">
        <route edges="north_osmena_2 north_osmena_3" />
    </vehicle>
    <vehicle id="a7200_52" depart="9874.29" type="bicycle_tricycle">
        <route edges="east_recto_0 east_recto_1 east_recto_2 north_corrales_1" />
    </vehicle>
    <vehicle id="a7200_53" depart="9925.71" type="bicycle_tricycle">
        <route edges="east_recto_0 east_recto_1 north_roa_0 north_roa_1" />
    </vehicle>
    <vehicle id="a7200_54" depart="9977.14" type="bicycle_tricycle">
        <route edges="west_luna_1 south_roa_1 east_recto_2" />
    </vehicle>
    <vehicle id="a7200_55" depart="10028.57" type="bicycle_tricycle">
        <route edges="east_luna_0 east_luna_1 east_luna_2" />
    </vehicle>
    <vehicle id="a7200_56" depart="10080.00" type="bicycle_tricycle">
        <route edges="west_recto_1 west_recto_2 west_recto_3" />
    </vehicle>
    <vehicle id="a7200_57" depart="10131.43" type="bicycle_tricycle">
        <route edges="north_osmena_0 north_osmena_1 west_florentino_0" />
    </vehicle>
    <vehicle id="a7200_58" depart="10182.86" type="bicycle_tricycle">
        <route edges="south_roa_0 south_roa_1 west_recto_2" />
    </vehicle>
    <vehicle id="a7200_59" depart="10234.29" type="bicycle_tricycle">
        <route edges="south_corrales_0 south_corrales_1" />
    </vehicle>
    <vehicle id="a7200_60" depart="10285.71" type="bicycle_tricycle">
        <route edges="west_recto_0 west_recto_1 north_roa_0 north_roa_1" />
    </vehicle>
    <vehicle id="a7200_61" depart="10337.14" type="bicycle_tricycle">
        <route edges="east_florentino_0 north_osmena_2 east_luna_0 north_roa_1" />
    </vehicle>
    <vehicle id="a7200_62" depart="10388.57" type="bicycle_tricycle">
        <route edges="south_roa_1 west_recto_2 west_recto_3" />
    </vehicle>
    <vehicle id="a7200_63" depart="10440.00" type="bicycle_tricycle">
        <route edges="south_roa_0 west_luna_2 north_osmena_3" />
    </vehicle>
    <vehicle id="a7200_64" depart="10491.43" type="bicycle_tricycle">
        <route edges="east_florentino_0 north_osmena_2 east_luna_0 north_roa_1" />
    </vehicle>
    <vehicle id="a7200_65" depart="10542.86" type="bicycle_tricycle">
        <route edges="east_florentino_0 north_osmena_2 east_luna_0 east_luna_1 south_corrales_1 west_recto_1" />
    </vehicle>
    <vehicle id="a7200_66" depart="10594.29" type="bicycle_tricycle">
        <route edges="south_corrales_0 west_luna_1 west_luna_2" />
    </vehicle>
    <vehicle id="a7200_67" depart="10645.71" type="bicycle_tricycle">
        <route edges="west_luna_0 west_luna_1 west_luna_2 north_osmena_3" />
    </vehicle>
    <vehicle id="a7200_68" depart="10697.14" type="bicycle_tricycle">
        <route edges="south_osmena_0 east_luna_0 east_luna_1 south_corrales_1 west_recto_1" />
    </vehicle>
    <vehicle id="a7200_69" depart="10748.57" type="bicycle_tricycle">
        <route edges="east_recto_1 north_roa_0 west_luna_2 south_osmena_1 south_osmena_2 west_recto_3" />
    </vehicle>

    <vehicle id="a10800_0" depart="10800.00" type="bicycle_tricycle">
        <route edges="south_corrales_0 west_luna_1 west_luna_2" />
    </vehicle>
    <vehicle id="a10800_1" depart="10846.75" type="bicycle_tricycle">
        <route edges="west_luna_1 west_luna_2 north_osmena_3" />
    </vehicle>
    <vehicle id="a10800_2" depart="10893.51" type="bicycle_tricycle">
        <route edges="east_recto_0 east_recto_1 north_roa_0" />
    </vehicle>
    <vehicle id="a10800_3" depart="10940.26" type="bicycle_tricycle">
        <route edges="east_florentino_0 north_osmena_2 east_luna_0 east_luna_1 south_corrales_1" />
    </vehicle>
    <vehicle id="a10800_4" depart="10987.01" type="bicycle_tricycle">
        <route edges="east_recto_0 east_recto_1" />
    </vehicle>
    <vehicle id="a10800_5" depart="11033.77" type="bicycle_tricycle">
        <route edges="east_florentino_0 north_osmena_2 east_luna_0 east_luna_1 south_corrales_1" />
    </vehicle>
    <vehicle id="a10800_6" depart="11080.52" type="bicycle_tricycle">
        <route edges="east_recto_2 north_corrales_1 north_corrales_2" />
    </vehicle>
    <vehicle id="a10800_7" depart="11127.27" type="bicycle_tricycle">
        <route edges="south_roa_0 east_luna_1" />
    </vehicle>
    <vehicle id="a10800_8" depart="11174.03" type="bicycle_tricycle">
        <route edges="east_recto_0 east_recto_1 north_roa_0 north_roa_1" />
    </vehicle>
    <vehicle id="a10800_9" depart="11220.78" type="bicycle_tricycle">
        <route edges="west_recto_1 west_recto_2" />
    </vehicle>
    <vehicle id="a10800_10" depart="11267.53" type="bicycle_tricycle">
        <route edges="east_recto_1 north_roa_0 east_luna_1" />
    </vehicle>
    <vehicle id="a10800_11" depart="11314.29" type="bicycle_tricycle">
        <route edges="east_luna_1 south_corrales_1 west_recto_1 west_recto_2 west_recto_3" />
    </vehicle>
    <vehicle id="a10800_12" depart="11361.04" type="bicycle_tricycle">
        <route edges="north_osmena_2 east_luna_0 east_luna_1 south_corrales_1 west_recto_1" />
    </vehicle>
    <vehicle id="a10800_13" depart="11407.79" type="bicycle_tricycle">
        <route edges="west_recto_1 west_recto_2" />
    </vehicle>
    <vehicle id="a10800_14" depart="11454.55" type="bicycle_tricycle">
        <route edges="south_osmena_0 east_luna_0 east_luna_1" />
    </vehicle>
    <vehicle id="a10800_15" depart="11501.30" type="bicycle_tricycle">
        <route edges="north_osmena_0 north_osmena_1" />
    </vehicle>
    <vehicle id="a10800_16" depart="11548.05" type="bicycle_tricycle">
        <route edges="north_osmena_0 east_recto_1 north_roa_0 west_luna_2" />
    </vehicle>
    <vehicle id="a10800_17" depart="11594.81" type="bicycle_tricycle">
        <route edges="east_recto_0 north_osmena_1" />
    </vehicle>
    <vehicle id="a10800_18" depart="11641.56" type="bicycle_tricycle">
        <route edges="west_recto_1 north_roa_0 east_luna_1" />
    </vehicle>
    <vehicle id="a10800_19" depart="11688.31" type="bicycle_tricycle">
        <route edges="east_recto_0 east_recto_1 east_recto_2 north_corrales_1 east_luna_2" />
    </vehicle>
    <vehicle id="a10800_20" depart="11735.06" type="bicycle_tricycle">
        <route edges="south_corrales_0 west_luna_1 south_roa_1 east_recto_2" />
    </vehicle>
    <vehicle id="a10800_21" depart="11781.82" type="bicycle_tricycle">
        <route edges="south_corrales_1 west_recto_1 west_recto_2 south_osmena_3" />
    </vehicle>
    <vehicle id="a10800_22" depart="11828.57" type="bicycle_tricycle">
        <route edges="north_osmena_2 east_luna_0 east_luna_1 south_corrales_1 west_recto_1" />
    </vehicle>
    <vehicle id="a10800_23" depart="11875.32" type="bicycle_tricycle">
        <route edges="south_roa_0 south_roa_1 east_recto_2" />
    </vehicle>
    <vehicle id="a10800_24" depart="11922.08" type="bicycle_tricycle">