<routes xmlns:xsi="http://www.w3.org/2001/XMLSchema-instance" xsi:noNamespaceSchemaLocation="http://sumo.dlr.de/xsd/routes_file.xsd">
<vType id="jeepney" accel="0.8" decel="4.0" sigma="0.5" length="7.0" minGap="2.5" maxSpeed="30.0" guiShape="truck" color="0,0,255" />
    <vehicle id="20_0" depart="0.00" type="jeepney">
        <route edges="north_osmena_0 north_osmena_1 west_florentino_0" />
    </vehicle>
    <vehicle id="20_1" depart="16.82" type="jeepney">
        <route edges="east_florentino_0 south_osmena_2 east_recto_1 east_recto_2 south_corrales_2" />
    </vehicle>
    <vehicle id="20_2" depart="33.64" type="jeepney">
        <route edges="east_florentino_0 south_osmena_2 west_recto_3" />
    </vehicle>
    <vehicle id="20_3" depart="50.47" type="jeepney">
        <route edges="west_luna_0 west_luna_1 west_luna_2 north_osmena_3" />
    </vehicle>
    <vehicle id="20_4" depart="67.29" type="jeepney">
        <route edges="west_recto_0 west_recto_1 west_recto_2 north_osmena_1 west_florentino_0" />
    </vehicle>
    <vehicle id="20_5" depart="84.11" type="jeepney">
        <route edges="north_corrales_0 north_corrales_1 east_luna_2" />
    </vehicle>
    <vehicle id="20_6" depart="100.93" type="jeepney">
        <route edges="east_recto_0 east_recto_1 east_recto_2 east_recto_3" />
    </vehicle>
    <vehicle id="20_7" depart="117.76" type="jeepney">
        <route edges="west_recto_0 west_recto_1 west_recto_2 north_osmena_1 west_florentino_0" />
    </vehicle>
    <vehicle id="20_8" depart="134.58" type="jeepney">
        <route edges="west_recto_0 west_recto_1 west_recto_2 west_recto_3" />
    </vehicle>
    <vehicle id="20_9" depart="151.40" type="jeepney">
        <route edges="east_recto_0 north_osmena_1 west_florentino_0" />
    </vehicle>
    <vehicle id="20_10" depart="168.22" type="jeepney">
        <route edges="east_recto_0 east_recto_1 east_recto_2 east_recto_3" />
    </vehicle>
    <vehicle id="20_11" depart="185.05" type="jeepney">
        <route edges="west_recto_0 south_corrales_2" />
    </vehicle>
    <vehicle id="20_12" depart="201.87" type="jeepney">
        <route edges="west_recto_0 west_recto_1 west_recto_2 west_recto_3" />
    </vehicle>
    <vehicle id="20_13" depart="218.69" type="jeepney">
        <route edges="east_recto_0 east_recto_1 east_recto_2 north_corrales_1 east_luna_2" />
    </vehicle>
    <vehicle id="20_14" depart="235.51" type="jeepney">
        <route edges="north_corrales_0 north_corrales_1 east_luna_2" />
    </vehicle>
    <vehicle id="20_15" depart="252.34" type="jeepney">
        <route edges="north_corrales_0 north_corrales_1 east_luna_2" />
    </vehicle>
    <vehicle id="20_16" depart="269.16" type="jeepney">
        <route edges="east_recto_0 east_recto_1 east_recto_2 east_recto_3" />
    </vehicle>
    <vehicle id="20_17" depart="285.98" type="jeepney">
        <route edges="west_recto_0 west_recto_1 west_recto_2 south_osmena_3" />
    </vehicle>
    <vehicle id="20_18" depart="302.80" type="jeepney">
        <route edges="north_corrales_0 north_corrales_1 east_luna_2" />
    </vehicle>
    <vehicle id="20_19" depart="319.63" type="jeepney">
        <route edges="east_florentino_0 south_osmena_2 west_recto_3" />
    </vehicle>
    <vehicle id="20_20" depart="336.45" type="jeepney">
        <route edges="north_corrales_0 east_recto_3" />
    </vehicle>
    <vehicle id="20_21" depart="353.27" type="jeepney">
        <route edges="east_recto_0 east_recto_1 east_recto_2 east_recto_3" />
    </vehicle>
    <vehicle id="20_22" depart="370.09" type="jeepney">
        <route edges="west_recto_0 west_recto_1 west_recto_2 west_recto_3" />
    </vehicle>
    <vehicle id="20_23" depart="386.92" type="jeepney">
        <route edges="west_recto_0 west_recto_1 west_recto_2 north_osmena_1 west_florentino_0" />
    </vehicle>
    <vehicle id="20_24" depart="403.74" type="jeepney">
        <route edges="north_corrales_0 north_corrales_1 east_luna_2" />
    </vehicle>
    <vehicle id="20_25" depart="420.56" type="jeepney">
        <route edges="east_florentino_0 south_osmena_2 west_recto_3" />
    </vehicle>
    <vehicle id="20_26" depart="437.38" type="jeepney">
        <route edges="west_recto_0 west_recto_1 west_recto_2 west_recto_3" />
    </vehicle>
    <vehicle id="20_27" depart="454.21" type="jeepney">
        <route edges="west_recto_0 south_corrales_2" />
    </vehicle>
    <vehicle id="20_28" depart="471.03" type="jeepney">
        <route edges="west_luna_0 west_luna_1 north_roa_1" />
    </vehicle>
    <vehicle id="20_29" depart="487.85" type="jeepney">
        <route edges="east_recto_0 east_recto_1 east_recto_2 east_recto_3" />
    </vehicle>
    <vehicle id="20_30" depart="504.67" type="jeepney">
        <route edges="east_recto_0 north_osmena_1 west_florentino_0" />
    </vehicle>
    <vehicle id="20_31" depart="521.50" type="jeepney">
        <route edges="east_recto_0 east_recto_1 east_recto_2 east_recto_3" />
    </vehicle>
    <vehicle id="20_32" depart="538.32" type="jeepney">
        <route edges="north_corrales_0 north_corrales_1 east_luna_2" />
    </vehicle>
    <vehicle id="20_33" depart="555.14" type="jeepney">
        <route edges="east_recto_0 east_recto_1 east_recto_2 north_corrales_1 east_luna_2" />
    </vehicle>
    <vehicle id="20_34" depart="571.96" type="jeepney">
        <route edges="west_recto_0 west_recto_1 west_recto_2 south_osmena_3" />
    </vehicle>
    <vehicle id="20_35" depart="588.79" type="jeepney">
        <route edges="west_recto_0 west_recto_1 west_recto_2 west_recto_3" />
    </vehicle>
    <vehicle id="20_36" depart="605.61" type="jeepney">
        <route edges="north_corrales_0 north_corrales_1 east_luna_2" />
    </vehicle>
    <vehicle id="20_37" depart="622.43" type="jeepney">
        <route edges="east_recto_0 north_osmena_1 north_osmena_2 north_osmena_3" />
    </vehicle>
    <vehicle id="20_38" depart="639.25" type="jeepney">
        <route edges="north_osmena_0 north_osmena_1 west_florentino_0" />
    </vehicle>
    <vehicle id="20_39" depart="656.07" type="jeepney">
        <route edges="north_osmena_0 west_recto_3" />
    </vehicle>
    <vehicle id="20_40" depart="672.90" type="jeepney">
        <route edges="east_florentino_0 south_osmena_2 west_recto_3" />
    </vehicle>
    <vehicle id="20_41" depart="689.72" type="jeepney">
        <route edges="east_recto_0 east_recto_1 east_recto_2 north_corrales_1 east_luna_2" />
    </vehicle>
    <vehicle id="20_42" depart="706.54" type="jeepney">
        <route edges="north_corrales_0 north_corrales_1 east_luna_2" />
    </vehicle>
    <vehicle id="20_43" depart="723.36" type="jeepney">
        <route edges="north_corrales_0 west_recto_1 west_recto_2 west_recto_3" />
    </vehicle>
    <vehicle id="20_44" depart="740.19" type="jeepney">
        <route edges="east_florentino_0 south_osmena_2 south_osmena_3" />
    </vehicle>
    <vehicle id="20_45" depart="757.01" type="jeepney">
        <route edges="west_luna_0 west_luna_1 west_luna_2 north_osmena_3" />
    </vehicle>
    <vehicle id="20_46" depart="773.83" type="jeepney">
        <route edges="north_corrales_0 east_recto_3" />
    </vehicle>
    <vehicle id="20_47" depart="790.65" type="jeepney">
        <route edges="north_corrales_0 north_corrales_1 east_luna_2" />
    </vehicle>
    <vehicle id="20_48" depart="807.48" type="jeepney">
        <route edges="south_osmena_0 east_luna_0 north_roa_1" />
    </vehicle>
    <vehicle id="20_49" depart="824.30" type="jeepney">
        <route edges="west_recto_0 west_recto_1 west_recto_2 south_osmena_3" />
    </vehicle>
    <vehicle id="20_50" depart="841.12" type="jeepney">
        <route edges="east_florentino_0 south_osmena_2 south_osmena_3" />
    </vehicle>
    <vehicle id="20_51" depart="857.94" type="jeepney">
        <route edges="north_corrales_0 east_recto_3" />
    </vehicle>
    <vehicle id="20_52" depart="874.77" type="jeepney">
        <route edges="west_recto_0 north_corrales_1 east_luna_2" />
    </vehicle>
    <vehicle id="20_53" depart="891.59" type="jeepney">
        <route edges="south_corrales_0 south_corrales_1 west_recto_1 west_recto_2 south_osmena_3" />
    </vehicle>
    <vehicle id="20_54" depart="908.41" type="jeepney">
        <route edges="east_florentino_0 south_osmena_2 south_osmena_3" />
    </vehicle>
    <vehicle id="20_55" depart="925.23" type="jeepney">
        <route edges="west_recto_0 south_corrales_2" />
    </vehicle>
    <vehicle id="20_56" depart="942.06" type="jeepney">
        <route edges="east_florentino_0 south_osmena_2 east_recto_1 east_recto_2 north_corrales_1 north_corrales_2" />
    </vehicle>
    <vehicle id="20_57" depart="958.88" type="jeepney">
        <route edges="east_recto_0 east_recto_1 east_recto_2 east_recto_3" />
    </vehicle>
    <vehicle id="20_58" depart="975.70" type="jeepney">
        <route edges="east_florentino_0 north_osmena_2 east_luna_0 east_luna_1 east_luna_2" />
    </vehicle>
    <vehicle id="20_59" depart="992.52" type="jeepney">
        <route edges="east_recto_0 north_osmena_1 west_florentino_0" />
    </vehicle>
    <vehicle id="20_60" depart="1009.35" type="jeepney">
        <route edges="north_osmena_0 north_osmena_1 west_florentino_0" />
    </vehicle>
    <vehicle id="20_61" depart="1026.17" type="jeepney">
        <route edges="north_osmena_0 east_recto_1 east_recto_2 south_corrales_2" />
    </vehicle>
    <vehicle id="20_62" depart="1042.99" type="jeepney">
        <route edges="north_corrales_0 east_recto_3" />
    </vehicle>
    <vehicle id="20_63" depart="1059.81" type="jeepney">
        <route edges="east_florentino_0 south_osmena_2 east_recto_1 east_recto_2 east_recto_3" />
    </vehicle>
    <vehicle id="20_64" depart="1076.64" type="jeepney">
        <route edges="west_recto_0 west_recto_1 west_recto_2 west_recto_3" />
    </vehicle>
    <vehicle id="20_65" depart="1093.46" type="jeepney">
        <route edges="north_corrales_0 west_recto_1 north_roa_0 north_roa_1" />
    </vehicle>
    <vehicle id="20_66" depart="1110.28" type="jeepney">
        <route edges="east_florentino_0 south_osmena_2 south_osmena_3" />
    </vehicle>
    <vehicle id="20_67" depart="1127.10" type="jeepney">
        <route edges="west_recto_0 west_recto_1 west_recto_2 west_recto_3" />
    </vehicle>
    <vehicle id="20_68" depart="1143.93" type="jeepney">
        <route edges="south_roa_0 west_luna_2 north_osmena_3" />
    </vehicle>
    <vehicle id="20_69" depart="1160.75" type="jeepney">
        <route edges="north_corrales_0 north_corrales_1 east_luna_2" />
    </vehicle>
    <vehicle id="20_70" depart="1177.57" type="jeepney">
        <route edges="east_recto_0 east_recto_1 east_recto_2 east_recto_3" />
    </vehicle>
    <vehicle id="20_71" depart="1194.39" type="jeepney">
        <route edges="east_recto_0 south_osmena_3" />
    </vehicle>
    <vehicle id="20_72" depart="1211.21" type="jeepney">
        <route edges="north_osmena_0 west_recto_3" />
    </vehicle>
    <vehicle id="20_73" depart="1228.04" type="jeepney">
        <route edges="east_florentino_0 south_osmena_2 south_osmena_3" />
    </vehicle>
    <vehicle id="20_74" depart="1244.86" type="jeepney">
        <route edges="north_osmena_0 north_osmena_1 west_florentino_0" />
    </vehicle>
    <vehicle id="20_75" depart="1261.68" type="jeepney">
        <route edges="west_recto_0 west_recto_1 west_recto_2 west_recto_3" />
    </vehicle>
    <vehicle id="20_76" depart="1278.50" type="jeepney">
        <route edges="north_osmena_0 north_osmena_1 west_florentino_0" />
    </vehicle>
    <vehicle id="20_77" depart="1295.33" type="jeepney">
        <route edges="north_corrales_0 north_corrales_1 east_luna_2" />
    </vehicle>
    <vehicle id="20_78" depart="1312.15" type="jeepney">
        <route edges="west_recto_0 west_recto_1 west_recto_2 north_osmena_1 west_florentino_0" />
    </vehicle>
    <vehicle id="20_79" depart="1328.97" type="jeepney">
        <route edges="east_recto_0 east_recto_1 east_recto_2 north_corrales_1 east_luna_2" />
    </vehicle>
    <vehicle id="20_80" depart="1345.79" type="jeepney">
        <route edges="east_recto_0 east_recto_1 east_recto_2 east_recto_3" />
    </vehicle>
    <vehicle id="20_81" depart="1362.62" type="jeepney">
        <route edges="east_florentino_0 south_osmena_2 south_osmena_3" />
    </vehicle>
    <vehicle id="20_82" depart="1379.44" type="jeepney">
        <route edges="north_corrales_0 east_recto_3" />
    </vehicle>
    <vehicle id="20_83" depart="1396.26" type="jeepney">
        <route edges="north_corrales_0 west_recto_1 west_recto_2 west_recto_3" />
    </vehicle>
    <vehicle id="20_84" depart="1413.08" type="jeepney">
        <route edges="east_florentino_0 south_osmena_2 west_recto_3" />
    </vehicle>
    <vehicle id="20_85" depart="1429.91" type="jeepney">
        <route edges="east_florentino_0 south_osmena_2 east_recto_1 east_recto_2 east_recto_3" />
    </vehicle>
    <vehicle id="20_86" depart="1446.73" type="jeepney">
        <route edges="east_recto_0 east_recto_1 east_recto_2 north_corrales_1 east_luna_2" />
    </vehicle>
    <vehicle id="20_87" depart="1463.55" type="jeepney">
        <route edges="east_recto_0 east_recto_1 east_recto_2 east_recto_3" />
    </vehicle>
    <vehicle id="20_88" depart="1480.37" type="jeepney">
        <route edges="east_recto_0 south_osmena_3" />
    </vehicle>
    <vehicle id="20_89" depart="1497.20" type="jeepney">
        <route edges="north_corrales_0 west_recto_1 west_recto_2 south_osmena_3" />
    </vehicle>
    <vehicle id="20_90" depart="1514.02" type="jeepney">
        <route edges="north_osmena_0 north_osmena_1 west_florentino_0" />
    </vehicle>
    <vehicle id="20_91" depart="1530.84" type="jeepney">
        <route edges="east_florentino_0 south_osmena_2 east_recto_1 north_roa_0 west_luna_2" />
    </vehicle>
    <vehicle id="20_92" depart="1547.66" type="jeepney">
        <route edges="south_corrales_0 south_corrales_1 west_recto_1 west_recto_2 west_recto_3" />
    </vehicle>
    <vehicle id="20_93" depart="1564.49" type="jeepney">
        <route edges="east_recto_0 east_recto_1 north_roa_0 north_roa_1" />
    </vehicle>
    <vehicle id="20_94" depart="1581.31" type="jeepney">
        <route edges="east_recto_0 east_recto_1 east_recto_2 east_recto_3" />
    </vehicle>
    <vehicle id="20_95" depart="1598.13" type="jeepney">
        <route edges="west_recto_0 west_recto_1 west_recto_2 south_osmena_3" />
    </vehicle>
    <vehicle id="20_96" depart="1614.95" type="jeepney">
        <route edges="south_corrales_0 west_luna_1 west_luna_2 north_osmena_3" />
    </vehicle>
    <vehicle id="20_97" depart="1631.78" type="jeepney">
        <route edges="east_recto_0 north_osmena_1 west_florentino_0" />
    </vehicle>
    <vehicle id="20_98" depart="1648.60" type="jeepney">
        <route edges="north_corrales_0 east_recto_3" />
    </vehicle>
    <vehicle id="20_99" depart="1665.42" type="jeepney">
        <route edges="west_recto_0 south_corrales_2" />
    </vehicle>
    <vehicle id="20_100" depart="1682.24" type="jeepney">
        <route edges="east_recto_0 east_recto_1 east_recto_2 east_recto_3" />
    </vehicle>
    <vehicle id="20_101" depart="1699.07" type="jeepney">
        <route edges="east_recto_0 east_recto_1 east_recto_2 east_recto_3" />
    </vehicle>
    <vehicle id="20_102" depart="1715.89" type="jeepney">
        <route edges="east_recto_0 east_recto_1 east_recto_2 north_corrales_1 east_luna_2" />
    </vehicle>
    <vehicle id="20_103" depart="1732.71" type="jeepney">
        <route edges="east_recto_0 east_recto_1 east_recto_2 north_corrales_1 east_luna_2" />
    </vehicle>
    <vehicle id="20_104" depart="1749.53" type="jeepney">
        <route edges="north_corrales_0 north_corrales_1 east_luna_2" />
    </vehicle>
    <vehicle id="20_105" depart="1766.36" type="jeepney">
        <route edges="north_osmena_0 north_osmena_1 west_florentino_0" />
    </vehicle>
    <vehicle id="20_106" depart="1783.18" type="jeepney">
        <route edges="west_recto_0 west_recto_1 west_recto_2 west_recto_3" />
    </vehicle>
    <vehicle id="20_107" depart="1800.00" type="jeepney">
        <route edges="west_recto_0 north_corrales_1 east_luna_2" />
    </vehicle>
    <vehicle id="20_108" depart="1816.82" type="jeepney">
        <route edges="east_recto_0 east_recto_1 east_recto_2 east_recto_3" />
    </vehicle>
    <vehicle id="20_109" depart="1833.64" type="jeepney">
        <route edges="east_florentino_0 south_osmena_2 south_osmena_3" />
    </vehicle>
    <vehicle id="20_110" depart="1850.47" type="jeepney">
        <route edges="south_roa_0 south_roa_1 east_recto_2 south_corrales_2" />
    </vehicle>
    <vehicle id="20_111" depart="1867.29" type="jeepney">
        <route edges="west_recto_0 west_recto_1 west_recto_2 west_recto_3" />
    </vehicle>
    <vehicle id="20_112" depart="1884.11" type="jeepney">
        <route edges="west_recto_0 west_recto_1 west_recto_2 west_recto_3" />
    </vehicle>
    <vehicle id="20_113" depart="1900.93" type="jeepney">
        <route edges="west_recto_0 west_recto_1 west_recto_2 west_recto_3" />
    </vehicle>
    <vehicle id="20_114" depart="1917.76" type="jeepney">
        <route edges="north_corrales_0 north_corrales_1 east_luna_2" />
    </vehicle>
    <vehicle id="20_115" depart="1934.58" type="jeepney">
        <route edges="east_recto_0 east_recto_1 east_recto_2 north_corrales_1 east_luna_2" />
    </vehicle>
    <vehicle id="20_116" depart="1951.40" type="jeepney">
        <route edges="south_osmena_0 east_luna_0 north_roa_1" />
    </vehicle>
    <vehicle id="20_117" depart="1968.22" type="jeepney">
        <route edges="east_florentino_0 south_osmena_2 south_osmena_3" />
    </vehicle>
    <vehicle id="20_118" depart="1985.05" type="jeepney">
        <route edges="west_recto_0 north_corrales_1 east_luna_2" />
    </vehicle>
    <vehicle id="20_119" depart="2001.87" type="jeepney">
        <route edges="east_florentino_0 south_osmena_2 east_recto_1 east_recto_2 east_recto_3" />
    </vehicle>
    <vehicle id="20_120" depart="2018.69" type="jeepney">
        <route edges="east_recto_0 north_osmena_1 north_osmena_2 north_osmena_3" />
    </vehicle>
    <vehicle id="20_121" depart="2035.51" type="jeepney">
        <route edges="south_roa_0 south_roa_1 west_recto_2 south_osmena_3" />
    </vehicle>
    <vehicle id="20_122" depart="2052.34" type="jeepney">
        <route edges="east_florentino_0 south_osmena_2 south_osmena_3" />
    </vehicle>
    <vehicle id="20_123" depart="2069.16" type="jeepney">
        <route edges="east_florentino_0 south_osmena_2 south_osmena_3" />
    </vehicle>
    <vehicle id="20_124" depart="2085.98" type="jeepney">
        <route edges="west_recto_0 west_recto_1 west_recto_2 west_recto_3" />
    </vehicle>
    <vehicle id="20_125" depart="2102.80" type="jeepney">
        <route edges="east_recto_0 east_recto_1 east_recto_2 north_corrales_1 east_luna_2" />
    </vehicle>
    <vehicle id="20_126" depart="2119.63" type="jeepney">
        <route edges="east_recto_0 east_recto_1 east_recto_2 east_recto_3" />
    </vehicle>
    <vehicle id="20_127" depart="2136.45" type="jeepney">
        <route edges="north_corrales_0 west_recto_1 west_recto_2 south_osmena_3" />
    </vehicle>
    <vehicle id="20_128" depart="2153.27" type="jeepney">
        <route edges="west_recto_0 south_corrales_2" />
    </vehicle>
    <vehicle id="20_129" depart="2170.09" type="jeepney">
        <route edges="west_recto_0 west_recto_1 west_recto_2 north_osmena_1 west_florentino_0" />
    </vehicle>
    <vehicle id="20_130" depart="2186.92" type="jeepney">
        <route edges="east_recto_0 east_recto_1 east_recto_2 north_corrales_1 east_luna_2" />
    </vehicle>
    <vehicle id="20_131" depart="2203.74" type="jeepney">
        <route edges="west_luna_0 west_luna_1 south_roa_1 east_recto_2 south_corrales_2" />
    </vehicle>
    <vehicle id="20_132" depart="2220.56" type="jeepney">
        <route edges="east_recto_0 east_recto_1 east_recto_2 east_recto_3" />
    </vehicle>
    <vehicle id="20_133" depart="2237.38" type="jeepney">
        <route edges="north_osmena_0 north_osmena_1 west_florentino_0" />
    </vehicle>
    <vehicle id="20_134" depart="2254.21" type="jeepney">
        <route edges="south_roa_0 south_roa_1 west_recto_2 south_osmena_3" />
    </vehicle>
    <vehicle id="20_135" depart="2271.03" type="jeepney">
        <route edges="north_corrales_0 west_recto_1 west_recto_2 north_osmena_1 west_florentino_0" />
    </vehicle>
    <vehicle id="20_136" depart="2287.85" type="jeepney">
        <route edges="south_corrales_0 west_luna_1 west_luna_2 south_osmena_1 west_florentino_0" />
    </vehicle>
    <vehicle id="20_137" depart="2304.67" type="jeepney">
        <route edges="west_recto_0 west_recto_1 west_recto_2 north_osmena_1 west_florentino_0" />
    </vehicle>
    <vehicle id="20_138" depart="2321.50" type="jeepney">
        <route edges="west_luna_0 west_luna_1 north_roa_1" />
    </vehicle>
    <vehicle id="20_139" depart="2338.32" type="jeepney">
        <route edges="west_recto_0 west_recto_1 west_recto_2 north_osmena_1 north_osmena_2 north_osmena_3" />
    </vehicle>
    <vehicle id="20_140" depart="2355.14" type="jeepney">
        <route edges="north_corrales_0 north_corrales_1 east_luna_2" />
    </vehicle>
    <vehicle id="20_141" depart="2371.96" type="jeepney">
        <route edges="west_recto_0 west_recto_1 west_recto_2 south_osmena_3" />
    </vehicle>
    <vehicle id="20_142" depart="2388.79" type="jeepney">
        <route edges="north_osmena_0 north_osmena_1 west_florentino_0" />
    </vehicle>
    <vehicle id="20_143" depart="2405.61" type="jeepney">
        <route edges="east_recto_0 east_recto_1 east_recto_2 east_recto_3" />
    </vehicle>
    <vehicle id="20_144" depart="2422.43" type="jeepney">
        <route edges="east_recto_0 east_recto_1 east_recto_2 east_recto_3" />
    </vehicle>
    <vehicle id="20_145" depart="2439.25" type="jeepney">
        <route edges="north_osmena_0 north_osmena_1 west_florentino_0" />
    </vehicle>
    <vehicle id="20_146" depart="2456.07" type="jeepney">
        <route edges="west_recto_0 west_recto_1 west_recto_2 west_recto_3" />
    </vehicle>
    <vehicle id="20_147" depart="2472.90" type="jeepney">
        <route edges="west_recto_0 south_corrales_2" />
    </vehicle>
    <vehicle id="20_148" depart="2489.72" type="jeepney">
        <route edges="south_osmena_0 south_osmena_1 south_osmena_2 east_recto_1 east_recto_2 south_corrales_2" />
    </vehicle>
    <vehicle id="20_149" depart="2506.54" type="jeepney">
        <route edges="east_recto_0 east_recto_1 east_recto_2 east_recto_3" />
    </vehicle>
    <vehicle id="20_150" depart="2523.36" type="jeepney">
        <route edges="west_recto_0 west_recto_1 west_recto_2 south_osmena_3" />
    </vehicle>
    <vehicle id="20_151" depart="2540.19" type="jeepney">
        <route edges="east_recto_0 east_recto_1 east_recto_2 east_recto_3" />
    </vehicle>
    <vehicle id="20_152" depart="2557.01" type="jeepney">
        <route edges="east_recto_0 east_recto_1 east_recto_2 east_recto_3" />
    </vehicle>
    <vehicle id="20_153" depart="2573.83" type="jeepney">
        <route edges="north_corrales_0 north_corrales_1 east_luna_2" />
    </vehicle>
    <vehicle id="20_154" depart="2590.65" type="jeepney">
        <route edges="west_recto_0 north_corrales_1 east_luna_2" />
    </vehicle>
    <vehicle id="20_155" depart="2607.48" type="jeepney">
        <route edges="east_florentino_0 south_osmena_2 south_osmena_3" />
    </vehicle>
    <vehicle id="20_156" depart="2624.30" type="jeepney">
        <route edges="west_recto_0 west_recto_1 west_recto_2 south_osmena_3" />
    </vehicle>
    <vehicle id="20_157" depart="2641.12" type="jeepney">
        <route edges="west_recto_0 west_recto_1 west_recto_2 west_recto_3" />
    </vehicle>
    <vehicle id="20_158" depart="2657.94" type="jeepney">
        <route edges="east_florentino_0 south_osmena_2 west_recto_3" />
    </vehicle>
    <vehicle id="20_159" depart="2674.77" type="jeepney">
        <route edges="west_recto_0 south_corrales_2" />
    </vehicle>
    <vehicle id="20_160" depart="2691.59" type="jeepney">
        <route edges="north_corrales_0 north_corrales_1 east_luna_2" />
    </vehicle>
    <vehicle id="20_161" depart="2708.41" type="jeepney">
        <route edges="north_corrales_0 east_recto_3" />
    </vehicle>
    <vehicle id="20_162" depart="2725.23" type="jeepney">
        <route edges="north_corrales_0 north_corrales_1 east_luna_2" />
    </vehicle>
    <vehicle id="20_163" depart="2742.06" type="jeepney">
        <route edges="north_corrales_0 north_corrales_1 east_luna_2" />
    </vehicle>
    <vehicle id="20_164" depart="2758.88" type="jeepney">
        <route edges="north_corrales_0 north_corrales_1 east_luna_2" />
    </vehicle>
    <vehicle id="20_165" depart="2775.70" type="jeepney">
        <route edges="east_florentino_0 south_osmena_2 east_recto_1 east_recto_2 east_recto_3" />
    </vehicle>
    <vehicle id="20_166" depart="2792.52" type="jeepney">
        <route edges="west_recto_0 south_corrales_2" />
    </vehicle>
    <vehicle id="20_167" depart="2809.35" type="jeepney">
        <route edges="north_osmena_0 north_osmena_1 west_florentino_0" />
    </vehicle>
    <vehicle id="20_168" depart="2826.17" type="jeepney">
        <route edges="north_corrales_0 north_corrales_1 east_luna_2" />
    </vehicle>
    <vehicle id="20_169" depart="2842.99" type="jeepney">
        <route edges="west_recto_0 west_recto_1 west_recto_2 north_osmena_1 west_florentino_0" />
    </vehicle>
    <vehicle id="20_170" depart="2859.81" type="jeepney">
        <route edges="east_florentino_0 south_osmena_2 east_recto_1 east_recto_2 east_recto_3" />
    </vehicle>
    <vehicle id="20_171" depart="2876.64" type="jeepney">
        <route edges="east_florentino_0 south_osmena_2 south_osmena_3" />
    </vehicle>
    <vehicle id="20_172" depart="2893.46" type="jeepney">
        <route edges="north_corrales_0 north_corrales_1 east_luna_2" />
    </vehicle>
    <vehicle id="20_173" depart="2910.28" type="jeepney">
        <route edges="north_osmena_0 north_osmena_1 west_florentino_0" />
    </vehicle>
    <vehicle id="20_174" depart="2927.10" type="jeepney">
        <route edges="west_recto_0 south_corrales_2" />
    </vehicle>
    <vehicle id="20_175" depart="2943.93" type="jeepney">
        <route edges="north_corrales_0 north_corrales_1 east_luna_2" />
    </vehicle>
    <vehicle id="20_176" depart="2960.75" type="jeepney">
        <route edges="east_florentino_0 south_osmena_2 south_osmena_3" />
    </vehicle>
    <vehicle id="20_177" depart="2977.57" type="jeepney">
        <route edges="south_roa_0 west_luna_2 north_osmena_3" />
    </vehicle>
    <vehicle id="20_178" depart="2994.39" type="jeepney">
        <route edges="east_recto_0 east_recto_1 east_recto_2 east_recto_3" />
    </vehicle>
    <vehicle id="20_179" depart="3011.21" type="jeepney">
        <route edges="west_recto_0 west_recto_1 west_recto_2 west_recto_3" />
    </vehicle>
    <vehicle id="20_180" depart="3028.04" type="jeepney">
        <route edges="west_recto_0 west_recto_1 west_recto_2 south_osmena_3" />
    </vehicle>
    <vehicle id="20_181" depart="3044.86" type="jeepney">
        <route edges="north_corrales_0 north_corrales_1 east_luna_2" />
    </vehicle>
    <vehicle id="20_182" depart="3061.68" type="jeepney">
        <route edges="north_osmena_0 north_osmena_1 west_florentino_0" />
    </vehicle>
    <vehicle id="20_183" depart="3078.50" type="jeepney">
        <route edges="east_recto_0 south_osmena_3" />
    </vehicle>
    <vehicle id="20_184" depart="3095.33" type="jeepney">
        <route edges="east_recto_0 east_recto_1 east_recto_2 east_recto_3" />
    </vehicle>
    <vehicle id="20_185" depart="3112.15" type="jeepney">
        <route edges="south_corrales_0 west_luna_1 west_luna_2 north_osmena_3" />
    </vehicle>
    <vehicle id="20_186" depart="3128.97" type="jeepney">
        <route edges="north_osmena_0 north_osmena_1 west_florentino_0" />
    </vehicle>
    <vehicle id="20_187" depart="3145.79" type="jeepney">
        <route edges="north_corrales_0 north_corrales_1 east_luna_2" />
    </vehicle>
    <vehicle id="20_188" depart="3162.62" type="jeepney">
        <route edges="east_florentino_0 south_osmena_2 south_osmena_3" />
    </vehicle>
    <vehicle id="20_189" depart="3179.44" type="jeepney">
        <route edges="west_recto_0 north_corrales_1 north_corrales_2" />
    </vehicle>
    <vehicle id="20_190" depart="3196.26" type="jeepney">
        <route edges="west_recto_0 west_recto_1 west_recto_2 south_osmena_3" />
    </vehicle>
    <vehicle id="20_191" depart="3213.08" type="jeepney">
        <route edges="north_osmena_0 east_recto_1 east_recto_2 east_recto_3" />
    </vehicle>
    <vehicle id="20_192" depart="3229.91" type="jeepney">
        <route edges="east_florentino_0 south_osmena_2 west_recto_3" />
    </vehicle>
    <vehicle id="20_193" depart="3246.73" type="jeepney">
        <route edges="west_recto_0 north_corrales_1 east_luna_2" />
    </vehicle>
    <vehicle id="20_194" depart="3263.55" type="jeepney">
        <route edges="west_recto_0 north_corrales_1 east_luna_2" />
    </vehicle>
    <vehicle id="20_195" depart="3280.37" type="jeepney">
        <route edges="west_recto_0 north_corrales_1 east_luna_2" />
    </vehicle>
    <vehicle id="20_196" depart="3297.20" type="jeepney">
        <route edges="west_luna_0 west_luna_1 south_roa_1 west_recto_2 south_osmena_3" />
    </vehicle>
    <vehicle id="20_197" depart="3314.02" type="jeepney">
        <route edges="west_recto_0 west_recto_1 west_recto_2 south_osmena_3" />
    </vehicle>
    <vehicle id="20_198" depart="3330.84" type="jeepney">
        <route edges="east_recto_0 east_recto_1 east_recto_2 north_corrales_1 east_luna_2" />
    </vehicle>