<routes xmlns:xsi="http://www.w3.org/2001/XMLSchema-instance" xsi:noNamespaceSchemaLocation="http://sumo.dlr.de/xsd/routes_file.xsd">
<vType id="largeTrucks" accel="0.4" decel="3.0" sigma="0.5" length="12.0" minGap="2.5" maxSpeed="30.0" guiShape="truck" color="0,0,255" />

    <vehicle id="30_0" depart="0.00" type="largeTrucks">
        <route edges="south_osmena_0 south_osmena_1 south_osmena_2 east_recto_1 east_recto_2 north_corrales_1 north_corrales_2" />
    </vehicle>
    <vehicle id="30_1" depart="39.56" type="largeTrucks">
        <route edges="south_roa_0 south_roa_1 east_recto_2 north_corrales_1 north_corrales_2" />
    </vehicle>
    <vehicle id="30_2" depart="79.12" type="largeTrucks">
        <route edges="west_recto_0 west_recto_1 west_recto_2 west_recto_3" />
    </vehicle>
    <vehicle id="30_3" depart="118.68" type="largeTrucks">
        <route edges="north_corrales_0 west_recto_1 west_recto_2 south_osmena_3" />
    </vehicle>
    <vehicle id="30_4" depart="158.24" type="largeTrucks">
        <route edges="west_recto_0 west_recto_1 west_recto_2 west_recto_3" />
    </vehicle>
    <vehicle id="30_5" depart="197.80" type="largeTrucks">
        <route edges="east_recto_0 east_recto_1 east_recto_2 north_corrales_1 east_luna_2" />
    </vehicle>
    <vehicle id="30_6" depart="237.36" type="largeTrucks">
        <route edges="south_osmena_0 south_osmena_1 south_osmena_2 south_osmena_3" />
    </vehicle>
    <vehicle id="30_7" depart="276.92" type="largeTrucks">
        <route edges="north_osmena_0 east_recto_1 east_recto_2 east_recto_3" />
    </vehicle>
    <vehicle id="30_8" depart="316.48" type="largeTrucks">
        <route edges="south_osmena_0 south_osmena_1 south_osmena_2 west_recto_3" />
    </vehicle>
    <vehicle id="30_9" depart="356.04" type="largeTrucks">
        <route edges="west_recto_0 west_recto_1 west_recto_2 south_osmena_3" />
    </vehicle>
    <vehicle id="30_10" depart="395.60" type="largeTrucks">
        <route edges="west_luna_0 north_corrales_2" />
    </vehicle>
    <vehicle id="30_11" depart="435.16" type="largeTrucks">
        <route edges="west_recto_0 west_recto_1 west_recto_2 south_osmena_3" />
    </vehicle>
    <vehicle id="30_12" depart="474.73" type="largeTrucks">
        <route edges="east_recto_0 east_recto_1 east_recto_2 east_recto_3" />
    </vehicle>
    <vehicle id="30_13" depart="514.29" type="largeTrucks">
        <route edges="east_florentino_0 north_osmena_2 east_luna_0 north_roa_1" />
    </vehicle>
    <vehicle id="30_14" depart="553.85" type="largeTrucks">
        <route edges="west_recto_0 west_recto_1 west_recto_2 west_recto_3" />
    </vehicle>
    <vehicle id="30_15" depart="593.41" type="largeTrucks">
        <route edges="east_florentino_0 north_osmena_2 north_osmena_3" />
    </vehicle>
    <vehicle id="30_16" depart="632.97" type="largeTrucks">
        <route edges="east_recto_0 east_recto_1 east_recto_2 east_recto_3" />
    </vehicle>
    <vehicle id="30_17" depart="672.53" type="largeTrucks">
        <route edges="east_florentino_0 north_osmena_2 east_luna_0 east_luna_1 east_luna_2" />
    </vehicle>
    <vehicle id="30_18" depart="712.09" type="largeTrucks">
        <route edges="west_recto_0 west_recto_1 west_recto_2 north_osmena_1 north_osmena_2 south_osmena_1 south_osmena_2 east_recto_1 east_recto_2 east_recto_3" />
    </vehicle>
    <vehicle id="30_19" depart="751.65" type="largeTrucks">
        <route edges="south_corrales_0 south_corrales_1 west_recto_1 west_recto_2 west_recto_3" />
    </vehicle>
    <vehicle id="30_20" depart="791.21" type="largeTrucks">
        <route edges="north_corrales_0 west_recto_1 west_recto_2 west_recto_3" />
    </vehicle>
    <vehicle id="30_21" depart="830.77" type="largeTrucks">
        <route edges="south_roa_0 south_roa_1 east_recto_2 east_recto_3" />
    </vehicle>
    <vehicle id="30_22" depart="870.33" type="largeTrucks">
        <route edges="south_corrales_0 south_corrales_1 south_corrales_2" />
    </vehicle>
    <vehicle id="30_23" depart="909.89" type="largeTrucks">
        <route edges="north_corrales_0 west_recto_1 west_recto_2 west_recto_3" />
    </vehicle>
    <vehicle id="30_24" depart="949.45" type="largeTrucks">
        <route edges="east_recto_0 north_osmena_1 north_osmena_2 north_osmena_3" />
    </vehicle>
    <vehicle id="30_25" depart="989.01" type="largeTrucks">
        <route edges="north_corrales_0 west_recto_1 west_recto_2 west_recto_3" />
    </vehicle>
    <vehicle id="30_26" depart="1028.57" type="largeTrucks">
        <route edges="west_recto_0 west_recto_1 west_recto_2 west_recto_3" />
    </vehicle>
    <vehicle id="30_27" depart="1068.13" type="largeTrucks">
        <route edges="east_recto_0 east_recto_1 east_recto_2 east_recto_3" />
    </vehicle>
    <vehicle id="30_28" depart="1107.69" type="largeTrucks">
        <route edges="west_recto_0 west_recto_1 west_recto_2 west_recto_3" />
    </vehicle>
    <vehicle id="30_29" depart="1147.25" type="largeTrucks">
        <route edges="north_osmena_0 north_osmena_1 north_osmena_2 north_osmena_3" />
    </vehicle>
    <vehicle id="30_30" depart="1186.81" type="largeTrucks">
        <route edges="east_recto_0 east_recto_1 east_recto_2 north_corrales_1 east_luna_2" />
    </vehicle>
    <vehicle id="30_31" depart="1226.37" type="largeTrucks">
        <route edges="south_osmena_0 south_osmena_1 south_osmena_2 south_osmena_3" />
    </vehicle>
    <vehicle id="30_32" depart="1265.93" type="largeTrucks">
        <route edges="west_recto_0 west_recto_1 west_recto_2 west_recto_3" />
    </vehicle>
    <vehicle id="30_33" depart="1305.49" type="largeTrucks">
        <route edges="north_osmena_0 north_osmena_1 north_osmena_2 north_osmena_3" />
    </vehicle>
    <vehicle id="30_34" depart="1345.05" type="largeTrucks">
        <route edges="north_osmena_0 north_osmena_1 west_florentino_0" />
    </vehicle>
    <vehicle id="30_35" depart="1384.62" type="largeTrucks">
        <route edges="north_corrales_0 west_recto_1 west_recto_2 west_recto_3" />
    </vehicle>
    <vehicle id="30_36" depart="1424.18" type="largeTrucks">
        <route edges="east_florentino_0 north_osmena_2 north_osmena_3" />
    </vehicle>
    <vehicle id="30_37" depart="1463.74" type="largeTrucks">
        <route edges="south_roa_0 west_luna_2 south_osmena_1 west_florentino_0" />
    </vehicle>
    <vehicle id="30_38" depart="1503.30" type="largeTrucks">
        <route edges="east_recto_0 south_osmena_3" />
    </vehicle>
    <vehicle id="30_39" depart="1542.86" type="largeTrucks">
        <route edges="south_roa_0 south_roa_1 east_recto_2 north_corrales_1 north_corrales_2" />
    </vehicle>
    <vehicle id="30_40" depart="1582.42" type="largeTrucks">
        <route edges="south_corrales_0 west_luna_1 west_luna_2 north_osmena_3" />
    </vehicle>
    <vehicle id="30_41" depart="1621.98" type="largeTrucks">
        <route edges="east_recto_0 east_recto_1 north_roa_0 north_roa_1" />
    </vehicle>
    <vehicle id="30_42" depart="1661.54" type="largeTrucks">
        <route edges="east_recto_0 north_osmena_1 north_osmena_2 north_osmena_3" />
    </vehicle>
    <vehicle id="30_43" depart="1701.10" type="largeTrucks">
        <route edges="east_recto_0 east_recto_1 east_recto_2 north_corrales_1 east_luna_2" />
    </vehicle>
    <vehicle id="30_44" depart="1740.66" type="largeTrucks">
        <route edges="south_corrales_0 south_corrales_1 south_corrales_2" />
    </vehicle>
    <vehicle id="30_45" depart="1780.22" type="largeTrucks">
        <route edges="north_corrales_0 west_recto_1 west_recto_2 west_recto_3" />
    </vehicle>
    <vehicle id="30_46" depart="1819.78" type="largeTrucks">
        <route edges="north_corrales_0 west_recto_1 west_recto_2 north_osmena_1 north_osmena_2 north_osmena_3" />
    </vehicle>
    <vehicle id="30_47" depart="1859.34" type="largeTrucks">
        <route edges="east_recto_0 east_recto_1 east_recto_2 south_corrales_2" />
    </vehicle>
    <vehicle id="30_48" depart="1898.90" type="largeTrucks">
        <route edges="east_florentino_0 north_osmena_2 north_osmena_3" />
    </vehicle>
    <vehicle id="30_49" depart="1938.46" type="largeTrucks">
        <route edges="south_osmena_0 south_osmena_1 south_osmena_2 east_recto_1 east_recto_2 north_corrales_1 north_corrales_2" />
    </vehicle>
    <vehicle id="30_50" depart="1978.02" type="largeTrucks">
        <route edges="north_corrales_0 west_recto_1 west_recto_2 west_recto_3" />
    </vehicle>
    <vehicle id="30_51" depart="2017.58" type="largeTrucks">
        <route edges="west_recto_0 west_recto_1 west_recto_2 west_recto_3" />
    </vehicle>
    <vehicle id="30_52" depart="2057.14" type="largeTrucks">
        <route edges="east_recto_0 east_recto_1 east_recto_2 north_corrales_1 east_luna_2" />
    </vehicle>
    <vehicle id="30_53" depart="2096.70" type="largeTrucks">
        <route edges="west_recto_0 west_recto_1 west_recto_2 west_recto_3" />
    </vehicle>
    <vehicle id="30_54" depart="2136.26" type="largeTrucks">
        <route edges="east_recto_0 east_recto_1 east_recto_2 south_corrales_2" />
    </vehicle>
    <vehicle id="30_55" depart="2175.82" type="largeTrucks">
        <route edges="west_recto_0 west_recto_1 west_recto_2 west_recto_3" />
    </vehicle>
    <vehicle id="30_56" depart="2215.38" type="largeTrucks">
        <route edges="east_recto_0 east_recto_1 east_recto_2 east_recto_3" />
    </vehicle>
    <vehicle id="30_57" depart="2254.95" type="largeTrucks">
        <route edges="west_recto_0 west_recto_1 west_recto_2 west_recto_3" />
    </vehicle>
    <vehicle id="30_58" depart="2294.51" type="largeTrucks">
        <route edges="west_recto_0 west_recto_1 west_recto_2 west_recto_3" />
    </vehicle>
    <vehicle id="30_59" depart="2334.07" type="largeTrucks">
        <route edges="west_luna_0 west_luna_1 south_roa_1 west_recto_2 south_osmena_3" />
    </vehicle>
    <vehicle id="30_60" depart="2373.63" type="largeTrucks">
        <route edges="south_roa_0 south_roa_1 east_recto_2 north_corrales_1 north_corrales_2" />
    </vehicle>
    <vehicle id="30_61" depart="2413.19" type="largeTrucks">
        <route edges="north_corrales_0 west_recto_1 west_recto_2 west_recto_3" />
    </vehicle>
    <vehicle id="30_62" depart="2452.75" type="largeTrucks">
        <route edges="south_osmena_0 south_osmena_1 west_florentino_0" />
    </vehicle>
    <vehicle id="30_63" depart="2492.31" type="largeTrucks">
        <route edges="east_recto_0 east_recto_1 east_recto_2 north_corrales_1 east_luna_2" />
    </vehicle>
    <vehicle id="30_64" depart="2531.87" type="largeTrucks">
        <route edges="east_florentino_0 north_osmena_2 north_osmena_3" />
    </vehicle>
    <vehicle id="30_65" depart="2571.43" type="largeTrucks">
        <route edges="east_florentino_0 north_osmena_2 north_osmena_3" />
    </vehicle>
    <vehicle id="30_66" depart="2610.99" type="largeTrucks">
        <route edges="north_corrales_0 west_recto_1 west_recto_2 south_osmena_3" />
    </vehicle>
    <vehicle id="30_67" depart="2650.55" type="largeTrucks">
        <route edges="east_florentino_0 north_osmena_2 east_luna_0 north_roa_1" />
    </vehicle>
    <vehicle id="30_68" depart="2690.11" type="largeTrucks">
        <route edges="north_corrales_0 west_recto_1 west_recto_2 west_recto_3" />
    </vehicle>
    <vehicle id="30_69" depart="2729.67" type="largeTrucks">
        <route edges="west_recto_0 west_recto_1 west_recto_2 north_osmena_1 north_osmena_2 north_osmena_3" />
    </vehicle>
    <vehicle id="30_70" depart="2769.23" type="largeTrucks">
        <route edges="north_corrales_0 west_recto_1 west_recto_2 west_recto_3" />
    </vehicle>
    <vehicle id="30_71" depart="2808.79" type="largeTrucks">
        <route edges="east_recto_0 east_recto_1 north_roa_0 north_roa_1" />
    </vehicle>
    <vehicle id="30_72" depart="2848.35" type="largeTrucks">
        <route edges="south_corrales_0 south_corrales_1 west_recto_1 west_recto_2 west_recto_3" />
    </vehicle>
    <vehicle id="30_73" depart="2887.91" type="largeTrucks">
        <route edges="north_corrales_0 west_recto_1 west_recto_2 west_recto_3" />
    </vehicle>
    <vehicle id="30_74" depart="2927.47" type="largeTrucks">
        <route edges="south_osmena_0 east_luna_0 east_luna_1 east_luna_2" />
    </vehicle>
    <vehicle id="30_75" depart="2967.03" type="largeTrucks">
        <route edges="north_corrales_0 west_recto_1 west_recto_2 west_recto_3" />
    </vehicle>
    <vehicle id="30_76" depart="3006.59" type="largeTrucks">
        <route edges="west_recto_0 west_recto_1 west_recto_2 west_recto_3" />
    </vehicle>
    <vehicle id="30_77" depart="3046.15" type="largeTrucks">
        <route edges="north_corrales_0 west_recto_1 west_recto_2 west_recto_3" />
    </vehicle>
    <vehicle id="30_78" depart="3085.71" type="largeTrucks">
        <route edges="east_florentino_0 south_osmena_2 south_osmena_3" />
    </vehicle>
    <vehicle id="30_79" depart="3125.27" type="largeTrucks">
        <route edges="east_recto_0 east_recto_1 east_recto_2 south_corrales_2" />
    </vehicle>
    <vehicle id="30_80" depart="3164.84" type="largeTrucks">
        <route edges="west_recto_0 west_recto_1 west_recto_2 west_recto_3" />
    </vehicle>
    <vehicle id="30_81" depart="3204.40" type="largeTrucks">
        <route edges="north_corrales_0 west_recto_1 west_recto_2 west_recto_3" />
    </vehicle>
    <vehicle id="30_82" depart="3243.96" type="largeTrucks">
        <route edges="north_osmena_0 west_recto_3" />
    </vehicle>
    <vehicle id="30_83" depart="3283.52" type="largeTrucks">
        <route edges="north_corrales_0 west_recto_1 west_recto_2 west_recto_3" />
    </vehicle>
    <vehicle id="30_84" depart="3323.08" type="largeTrucks">
        <route edges="east_florentino_0 north_osmena_2 north_osmena_3" />
    </vehicle>
    <vehicle id="30_85" depart="3362.64" type="largeTrucks">
        <route edges="east_recto_0 east_recto_1 east_recto_2 south_corrales_2" />
    </vehicle>
    <vehicle id="30_86" depart="3402.20" type="largeTrucks">
        <route edges="north_corrales_0 west_recto_1 west_recto_2 north_osmena_1 north_osmena_2 south_osmena_1 south_osmena_2 east_recto_1 east_recto_2 south_corrales_2" />
    </vehicle>
    <vehicle id="30_87" depart="3441.76" type="largeTrucks">
        <route edges="west_recto_0 west_recto_1 west_recto_2 west_recto_3" />
    </vehicle>
    <vehicle id="30_88" depart="3481.32" type="largeTrucks">
        <route edges="west_recto_0 west_recto_1 north_roa_0 north_roa_1" />
    </vehicle>
    <vehicle id="30_89" depart="3520.88" type="largeTrucks">
        <route edges="west_recto_0 west_recto_1 west_recto_2 west_recto_3" />
    </vehicle>
    <vehicle id="30_90" depart="3560.44" type="largeTrucks">
        <route edges="south_corrales_0 south_corrales_1 west_recto_1 west_recto_2 south_osmena_3" />
    </vehicle>

    <vehicle id="33600_0" depart="3600.00" type="largeTrucks">
        <route edges="east_recto_0 south_osmena_3" />
    </vehicle>
    <vehicle id="33600_1" depart="3622.64" type="largeTrucks">
        <route edges="east_recto_0 east_recto_1 east_recto_2 east_recto_3" />
    </vehicle>
    <vehicle id="33600_2" depart="3645.28" type="largeTrucks">
        <route edges="west_luna_0 west_luna_1 north_roa_1" />
    </vehicle>
    <vehicle id="33600_3" depart="3667.92" type="largeTrucks">
        <route edges="south_roa_0 west_luna_2 south_osmena_1 west_florentino_0" />
    </vehicle>
    <vehicle id="33600_4" depart="3690.57" type="largeTrucks">
        <route edges="east_recto_0 east_recto_1 east_recto_2 east_recto_3" />
    </vehicle>
    <vehicle id="33600_5" depart="3713.21" type="largeTrucks">
        <route edges="north_osmena_0 west_recto_3" />
    </vehicle>
    <vehicle id="33600_6" depart="3735.85" type="largeTrucks">
        <route edges="south_osmena_0 south_osmena_1 west_florentino_0" />
    </vehicle>
    <vehicle id="33600_7" depart="3758.49" type="largeTrucks">
        <route edges="south_roa_0 south_roa_1 east_recto_2 north_corrales_1 north_corrales_2" />
    </vehicle>
    <vehicle id="33600_8" depart="3781.13" type="largeTrucks">
        <route edges="north_osmena_0 west_recto_3" />
    </vehicle>
    <vehicle id="33600_9" depart="3803.77" type="largeTrucks">
        <route edges="east_recto_0 east_recto_1 east_recto_2 south_corrales_2" />
    </vehicle>
    <vehicle id="33600_10" depart="3826.42" type="largeTrucks">
        <route edges="south_osmena_0 south_osmena_1 south_osmena_2 east_recto_1 east_recto_2 east_recto_3" />
    </vehicle>
    <vehicle id="33600_11" depart="3849.06" type="largeTrucks">
        <route edges="east_recto_0 east_recto_1 east_recto_2 south_corrales_2" />
    </vehicle>
    <vehicle id="33600_12" depart="3871.70" type="largeTrucks">
        <route edges="north_osmena_0 west_recto_3" />
    </vehicle>
    <vehicle id="33600_13" depart="3894.34" type="largeTrucks">
        <route edges="west_recto_0 west_recto_1 west_recto_2 west_recto_3" />
    </vehicle>
    <vehicle id="33600_14" depart="3916.98" type="largeTrucks">
        <route edges="east_florentino_0 north_osmena_2 north_osmena_3" />
    </vehicle>
    <vehicle id="33600_15" depart="3939.62" type="largeTrucks">
        <route edges="north_corrales_0 west_recto_1 west_recto_2 south_osmena_3" />
    </vehicle>
    <vehicle id="33600_16" depart="3962.26" type="largeTrucks">
        <route edges="west_recto_0 west_recto_1 west_recto_2 west_recto_3" />
    </vehicle>
    <vehicle id="33600_17" depart="3984.91" type="largeTrucks">
        <route edges="north_corrales_0 west_recto_1 west_recto_2 west_recto_3" />
    </vehicle>
    <vehicle id="33600_18" depart="4007.55" type="largeTrucks">
        <route edges="east_recto_0 east_recto_1 east_recto_2 south_corrales_2" />
    </vehicle>
    <vehicle id="33600_19" depart="4030.19" type="largeTrucks">
        <route edges="west_luna_0 north_corrales_2" />
    </vehicle>
    <vehicle id="33600_20" depart="4052.83" type="largeTrucks">
        <route edges="west_recto_0 west_recto_1 west_recto_2 west_recto_3" />
    </vehicle>
    <vehicle id="33600_21" depart="4075.47" type="largeTrucks">
        <route edges="north_corrales_0 west_recto_1 west_recto_2 west_recto_3" />
    </vehicle>
    <vehicle id="33600_22" depart="4098.11" type="largeTrucks">
        <route edges="east_florentino_0 north_osmena_2 east_luna_0 east_luna_1 east_luna_2" />
    </vehicle>
    <vehicle id="33600_23" depart="4120.75" type="largeTrucks">
        <route edges="east_florentino_0 north_osmena_2 north_osmena_3" />
    </vehicle>
    <vehicle id="33600_24" depart="4143.40" type="largeTrucks">
        <route edges="north_corrales_0 west_recto_1 west_recto_2 south_osmena_3" />
    </vehicle>
    <vehicle id="33600_25" depart="4166.04" type="largeTrucks">
        <route edges="east_recto_0 east_recto_1 east_recto_2 south_corrales_2" />
    </vehicle>
    <vehicle id="33600_26" depart="4188.68" type="largeTrucks">
        <route edges="north_corrales_0 west_recto_1 west_recto_2 west_recto_3" />
    </vehicle>
    <vehicle id="33600_27" depart="4211.32" type="largeTrucks">
        <route edges="south_osmena_0 south_osmena_1 south_osmena_2 east_recto_1 east_recto_2 north_corrales_1 north_corrales_2" />
    </vehicle>
    <vehicle id="33600_28" depart="4233.96" type="largeTrucks">
        <route edges="west_recto_0 west_recto_1 west_recto_2 west_recto_3" />
    </vehicle>
    <vehicle id="33600_29" depart="4256.60" type="largeTrucks">
        <route edges="west_recto_0 west_recto_1 west_recto_2 west_recto_3" />
    </vehicle>
    <vehicle id="33600_30" depart="4279.25" type="largeTrucks">
        <route edges="north_corrales_0 west_recto_1 west_recto_2 west_recto_3" />
    </vehicle>
    <vehicle id="33600_31" depart="4301.89" type="largeTrucks">
        <route edges="east_florentino_0 north_osmena_2 north_osmena_3" />
    </vehicle>
    <vehicle id="33600_32" depart="4324.53" type="largeTrucks">
        <route edges="south_corrales_0 south_corrales_1 west_recto_1 west_recto_2 south_osmena_3" />
    </vehicle>
    <vehicle id="33600_33" depart="4347.17" type="largeTrucks">
        <route edges="west_recto_0 west_recto_1 west_recto_2 west_recto_3" />
    </vehicle>
    <vehicle id="33600_34" depart="4369.81" type="largeTrucks">
        <route edges="west_recto_0 west_recto_1 west_recto_2 west_recto_3" />
    </vehicle>
    <vehicle id="33600_35" depart="4392.45" type="largeTrucks">
        <route edges="west_recto_0 west_recto_1 west_recto_2 west_recto_3" />
    </vehicle>
    <vehicle id="33600_36" depart="4415.09" type="largeTrucks">
        <route edges="east_florentino_0 north_osmena_2 north_osmena_3" />
    </vehicle>
    <vehicle id="33600_37" depart="4437.74" type="largeTrucks">
        <route edges="west_recto_0 west_recto_1 west_recto_2 west_recto_3" />
    </vehicle>
    <vehicle id="33600_38" depart="4460.38" type="largeTrucks">
        <route edges="west_luna_0 west_luna_1 north_roa_1" />
    </vehicle>
    <vehicle id="33600_39" depart="4483.02" type="largeTrucks">
        <route edges="west_recto_0 west_recto_1 west_recto_2 south_osmena_3" />
    </vehicle>
    <vehicle id="33600_40" depart="4505.66" type="largeTrucks">
        <route edges="north_osmena_0 west_recto_3" />
    </vehicle>
    <vehicle id="33600_41" depart="4528.30" type="largeTrucks">
        <route edges="east_recto_0 south_osmena_3" />
    </vehicle>
    <vehicle id="33600_42" depart="4550.94" type="largeTrucks">
        <route edges="south_osmena_0 south_osmena_1 south_osmena_2 east_recto_1 east_recto_2 north_corrales_1 north_corrales_2" />
    </vehicle>
    <vehicle id="33600_43" depart="4573.58" type="largeTrucks">
        <route edges="west_recto_0 west_recto_1 west_recto_2 west_recto_3" />
    </vehicle>
    <vehicle id="33600_44" depart="4596.23" type="largeTrucks">
        <route edges="west_recto_0 west_recto_1 west_recto_2 west_recto_3" />
    </vehicle>
    <vehicle id="33600_45" depart="4618.87" type="largeTrucks">
        <route edges="east_recto_0 east_recto_1 east_recto_2 south_corrales_2" />
    </vehicle>
    <vehicle id="33600_46" depart="4641.51" type="largeTrucks">
        <route edges="south_corrales_0 west_luna_1 south_roa_1 east_recto_2 north_corrales_1 east_luna_2" />
    </vehicle>
    <vehicle id="33600_47" depart="4664.15" type="largeTrucks">
        <route edges="east_florentino_0 north_osmena_2 north_osmena_3" />
    </vehicle>
    <vehicle id="33600_48" depart="4686.79" type="largeTrucks">
        <route edges="east_recto_0 east_recto_1 east_recto_2 north_corrales_1 north_corrales_2" />
    </vehicle>
    <vehicle id="33600_49" depart="4709.43" type="largeTrucks">
        <route edges="west_recto_0 west_recto_1 west_recto_2 west_recto_3" />
    </vehicle>
    <vehicle id="33600_50" depart="4732.08" type="largeTrucks">
        <route edges="south_osmena_0 east_luna_0 north_roa_1" />
    </vehicle>
    <vehicle id="33600_51" depart="4754.72" type="largeTrucks">
        <route edges="east_recto_0 east_recto_1 east_recto_2 south_corrales_2" />
    </vehicle>
    <vehicle id="33600_52" depart="4777.36" type="largeTrucks">
        <route edges="east_recto_0 east_recto_1 east_recto_2 east_recto_3" />
    </vehicle>
    <vehicle id="33600_53" depart="4800.00" type="largeTrucks">
        <route edges="east_recto_0 east_recto_1 east_recto_2 south_corrales_2" />
    </vehicle>
    <vehicle id="33600_54" depart="4822.64" type="largeTrucks">
        <route edges="north_corrales_0 west_recto_1 west_recto_2 north_osmena_1 west_florentino_0" />
    </vehicle>
    <vehicle id="33600_55" depart="4845.28" type="largeTrucks">
        <route edges="west_recto_0 west_recto_1 west_recto_2 west_recto_3" />
    </vehicle>
    <vehicle id="33600_56" depart="4867.92" type="largeTrucks">
        <route edges="east_florentino_0 north_osmena_2 south_osmena_1 west_florentino_0" />
    </vehicle>
    <vehicle id="33600_57" depart="4890.57" type="largeTrucks">
        <route edges="south_roa_0 west_luna_2 north_osmena_3" />
    </vehicle>
    <vehicle id="33600_58" depart="4913.21" type="largeTrucks">
        <route edges="west_recto_0 west_recto_1 west_recto_2 west_recto_3" />
    </vehicle>
    <vehicle id="33600_59" depart="4935.85" type="largeTrucks">
        <route edges="north_osmena_0 east_recto_1 north_roa_0 north_roa_1" />
    </vehicle>
    <vehicle id="33600_60" depart="4958.49" type="largeTrucks">
        <route edges="west_recto_0 west_recto_1 west_recto_2 south_osmena_3" />
    </vehicle>
    <vehicle id="33600_61" depart="4981.13" type="largeTrucks">
        <route edges="west_recto_0 west_recto_1 west_recto_2 west_recto_3" />
    </vehicle>
    <vehicle id="33600_62" depart="5003.77" type="largeTrucks">
        <route edges="south_corrales_0 south_corrales_1 east_recto_3" />
    </vehicle>
    <vehicle id="33600_63" depart="5026.42" type="largeTrucks">
        <route edges="west_recto_0 west_recto_1 west_recto_2 north_osmena_1 north_osmena_2 north_osmena_3" />
    </vehicle>
    <vehicle id="33600_64" depart="5049.06" type="largeTrucks">
        <route edges="north_corrales_0 west_recto_1 west_recto_2 west_recto_3" />
    </vehicle>
    <vehicle id="33600_65" depart="5071.70" type="largeTrucks">
        <route edges="north_corrales_0 west_recto_1 north_roa_0 north_roa_1" />
    </vehicle>
    <vehicle id="33600_66" depart="5094.34" type="largeTrucks">
        <route edges="north_corrales_0 west_recto_1 west_recto_2 west_recto_3" />
    </vehicle>
    <vehicle id="33600_67" depart="5116.98" type="largeTrucks">
        <route edges="east_recto_0 east_recto_1 east_recto_2 east_recto_3" />
    </vehicle>
    <vehicle id="33600_68" depart="5139.62" type="largeTrucks">
        <route edges="west_recto_0 west_recto_1 west_recto_2 west_recto_3" />
    </vehicle>
    <vehicle id="33600_69" depart="5162.26" type="largeTrucks">
        <route edges="west_recto_0 west_recto_1 west_recto_2 north_osmena_1 north_osmena_2 north_osmena_3" />
    </vehicle>
    <vehicle id="33600_70" depart="5184.91" type="largeTrucks">
        <route edges="west_recto_0 west_recto_1 west_recto_2 west_recto_3" />
    </vehicle>
    <vehicle id="33600_71" depart="5207.55" type="largeTrucks">
        <route edges="west_luna_0 north_corrales_2" />
    </vehicle>
    <vehicle id="33600_72" depart="5230.19" type="largeTrucks">
        <route edges="east_florentino_0 north_osmena_2 east_luna_0 north_roa_1" />
    </vehicle>
    <vehicle id="33600_73" depart="5252.83" type="largeTrucks">
        <route edges="north_osmena_0 north_osmena_1 north_osmena_2 south_osmena_1 south_osmena_2 south_osmena_3" />
    </vehicle>
    <vehicle id="33600_74" depart="5275.47" type="largeTrucks">
        <route edges="north_corrales_0 west_recto_1 west_recto_2 west_recto_3" />
    </vehicle>
    <vehicle id="33600_75" depart="5298.11" type="largeTrucks">
        <route edges="east_florentino_0 north_osmena_2 north_osmena_3" />
    </vehicle>
    <vehicle id="33600_76" depart="5320.75" type="largeTrucks">
        <route edges="east_recto_0 north_osmena_1 north_osmena_2 north_osmena_3" />
    </vehicle>
    <vehicle id="33600_77" depart="5343.40" type="largeTrucks">
        <route edges="east_recto_0 east_recto_1 east_recto_2 south_corrales_2" />
    </vehicle>
    <vehicle id="33600_78" depart="5366.04" type="largeTrucks">
        <route edges="east_recto_0 east_recto_1 east_recto_2 east_recto_3" />
    </vehicle>
    <vehicle id="33600_79" depart="5388.68" type="largeTrucks">
        <route edges="south_roa_0 east_luna_1 east_luna_2" />
    </vehicle>
    <vehicle id="33600_80" depart="5411.32" type="largeTrucks">
        <route edges="west_recto_0 west_recto_1 west_recto_2 west_recto_3" />
    </vehicle>
    <vehicle id="33600_81" depart="5433.96" type="largeTrucks">
        <route edges="west_recto_0 west_recto_1 west_recto_2 west_recto_3" />
    </vehicle>
    <vehicle id="33600_82" depart="5456.60" type="largeTrucks">
        <route edges="south_corrales_0 south_corrales_1 west_recto_1 west_recto_2 south_osmena_3" />
    </vehicle>
    <vehicle id="33600_83" depart="5479.25" type="largeTrucks">
        <route edges="north_corrales_0 west_recto_1 west_recto_2 west_recto_3" />
    </vehicle>
    <vehicle id="33600_84" depart="5501.89" type="largeTrucks">
        <route edges="north_corrales_0 west_recto_1 west_recto_2 west_recto_3" />
    </vehicle>
    <vehicle id="33600_85" depart="5524.53" type="largeTrucks">
        <route edges="south_corrales_0 south_corrales_1 south_corrales_2" />
    </vehicle>
    <vehicle id="33600_86" depart="5547.17" type="largeTrucks">
        <route edges="north_corrales_0 west_recto_1 west_recto_2 west_recto_3" />
    </vehicle>
    <vehicle id="33600_87" depart="5569.81" type="largeTrucks">
        <route edges="south_roa_0 south_roa_1 east_recto_2 south_corrales_2" />
    </vehicle>
    <vehicle id="33600_88" depart="5592.45" type="largeTrucks">
        <route edges="north_corrales_0 west_recto_1 west_recto_2 north_osmena_1 north_osmena_2 south_osmena_1 south_osmena_2 east_recto_1 east_recto_2 south_corrales_2" />
    </vehicle>
    <vehicle id="33600_89" depart="5615.09" type="largeTrucks">
        <route edges="east_florentino_0 south_osmena_2 east_recto_1 east_recto_2 north_corrales_1 north_corrales_2" />
    </vehicle>
    <vehicle id="33600_90" depart="5637.74" type="largeTrucks">
        <route edges="south_osmena_0 south_osmena_1 south_osmena_2 east_recto_1 east_recto_2 north_corrales_1 north_corrales_2" />
    </vehicle>
    <vehicle id="33600_91" depart="5660.38" type="largeTrucks">
        <route edges="west_recto_0 west_recto_1 west_recto_2 west_recto_3" />
    </vehicle>
    <vehicle id="33600_92" depart="5683.02" type="largeTrucks">
        <route edges="west_recto_0 west_recto_1 west_recto_2 west_recto_3" />
    </vehicle>
    <vehicle id="33600_93" depart="5705.66" type="largeTrucks">