<routes xmlns:xsi="http://www.w3.org/2001/XMLSchema-instance" xsi:noNamespaceSchemaLocation="http://sumo.dlr.de/xsd/routes_file.xsd">
<vType id="motorela" accel="2.0" decel="4.5" sigma="0.5" length="2.0" minGap="0.5" maxSpeed="30.0" guiShape="bicycle" color="255,0,0" />
    <vehicle id="50_0" depart="0.00" type="motorela">
        <route edges="south_corrales_0 south_corrales_1 south_corrales_2" />
    </vehicle>
    <vehicle id="50_1" depart="62.07" type="motorela">
        <route edges="east_recto_0 north_osmena_1 north_osmena_2 north_osmena_3" />
    </vehicle>
    <vehicle id="50_2" depart="124.14" type="motorela">
        <route edges="south_corrales_0 west_luna_1 west_luna_2 south_osmena_1 west_florentino_0" />
    </vehicle>
    <vehicle id="50_3" depart="186.21" type="motorela">
        <route edges="west_recto_0 north_corrales_1 north_corrales_2" />
    </vehicle>
    <vehicle id="50_4" depart="248.28" type="motorela">
        <route edges="north_osmena_0 east_recto_1 east_recto_2 east_recto_3" />
    </vehicle>
    <vehicle id="50_5" depart="310.34" type="motorela">
        <route edges="west_luna_0 west_luna_1 south_roa_1 east_recto_2 north_corrales_1 east_luna_2" />
    </vehicle>
    <vehicle id="50_6" depart="372.41" type="motorela">
        <route edges="west_recto_0 south_corrales_2" />
    </vehicle>
    <vehicle id="50_7" depart="434.48" type="motorela">
        <route edges="east_florentino_0 north_osmena_2 east_luna_0 north_roa_1" />
    </vehicle>
    <vehicle id="50_8" depart="496.55" type="motorela">
        <route edges="west_luna_0 west_luna_1 north_roa_1" />
    </vehicle>
    <vehicle id="50_9" depart="558.62" type="motorela">
        <route edges="west_luna_0 north_corrales_2" />
    </vehicle>
    <vehicle id="50_10" depart="620.69" type="motorela">
        <route edges="south_roa_0 east_luna_1 east_luna_2" />
    </vehicle>
    <vehicle id="50_11" depart="682.76" type="motorela">
        <route edges="east_florentino_0 north_osmena_2 north_osmena_3" />
    </vehicle>
    <vehicle id="50_12" depart="744.83" type="motorela">
        <route edges="east_florentino_0 north_osmena_2 north_osmena_3" />
    </vehicle>
    <vehicle id="50_13" depart="806.90" type="motorela">
        <route edges="south_osmena_0 south_osmena_1 west_florentino_0" />
    </vehicle>
    <vehicle id="50_14" depart="868.97" type="motorela">
        <route edges="west_recto_0 west_recto_1 west_recto_2 north_osmena_1 north_osmena_2 north_osmena_3" />
    </vehicle>
    <vehicle id="50_15" depart="931.03" type="motorela">
        <route edges="north_osmena_0 east_recto_1 east_recto_2 east_recto_3" />
    </vehicle>
    <vehicle id="50_16" depart="993.10" type="motorela">
        <route edges="south_roa_0 south_roa_1 east_recto_2 north_corrales_1 north_corrales_2" />
    </vehicle>
    <vehicle id="50_17" depart="1055.17" type="motorela">
        <route edges="west_luna_0 north_corrales_2" />
    </vehicle>
    <vehicle id="50_18" depart="1117.24" type="motorela">
        <route edges="west_recto_1 north_roa_0 east_luna_1 east_luna_2" />
    </vehicle>
    <vehicle id="50_19" depart="1179.31" type="motorela">
        <route edges="north_corrales_0 north_corrales_1 north_corrales_2" />
    </vehicle>
    <vehicle id="50_20" depart="1241.38" type="motorela">
        <route edges="west_recto_0 north_corrales_1 east_luna_2" />
    </vehicle>
    <vehicle id="50_21" depart="1303.45" type="motorela">
        <route edges="north_osmena_0 north_osmena_1 west_florentino_0" />
    </vehicle>
    <vehicle id="50_22" depart="1365.52" type="motorela">
        <route edges="west_luna_0 west_luna_1 north_roa_1" />
    </vehicle>
    <vehicle id="50_23" depart="1427.59" type="motorela">
        <route edges="west_luna_0 west_luna_1 south_roa_1 west_recto_2 west_recto_3" />
    </vehicle>
    <vehicle id="50_24" depart="1489.66" type="motorela">
        <route edges="east_florentino_0 north_osmena_2 east_luna_0 east_luna_1 east_luna_2" />
    </vehicle>
    <vehicle id="50_25" depart="1551.72" type="motorela">
        <route edges="south_corrales_0 south_corrales_1 south_corrales_2" />
    </vehicle>
    <vehicle id="50_26" depart="1613.79" type="motorela">
        <route edges="east_florentino_0 north_osmena_2 north_osmena_3" />
    </vehicle>
    <vehicle id="50_27" depart="1675.86" type="motorela">
        <route edges="south_corrales_0 south_corrales_1 south_corrales_2" />
    </vehicle>
    <vehicle id="50_28" depart="1737.93" type="motorela">
        <route edges="east_recto_0 east_recto_1 east_recto_2 east_recto_3" />
    </vehicle>
    <vehicle id="50_29" depart="1800.00" type="motorela">
        <route edges="south_osmena_0 south_osmena_1 south_osmena_2 east_recto_1 east_recto_2 south_corrales_2" />
    </vehicle>
    <vehicle id="50_30" depart="1862.07" type="motorela">
        <route edges="north_corrales_0 west_recto_1 west_recto_2 north_osmena_1 north_osmena_2 north_osmena_3" />
    </vehicle>
    <vehicle id="50_31" depart="1924.14" type="motorela">
        <route edges="west_luna_0 north_corrales_2" />
    </vehicle>
    <vehicle id="50_32" depart="1986.21" type="motorela">
        <route edges="west_luna_0 north_corrales_2" />
    </vehicle>
    <vehicle id="50_33" depart="2048.28" type="motorela">
        <route edges="west_recto_0 south_corrales_2" />
    </vehicle>
    <vehicle id="50_34" depart="2110.34" type="motorela">
        <route edges="east_florentino_0 south_osmena_2 east_recto_1 north_roa_0 west_luna_2" />
    </vehicle>
    <vehicle id="50_35" depart="2172.41" type="motorela">
        <route edges="south_corrales_0 south_corrales_1 east_recto_3" />
    </vehicle>
    <vehicle id="50_36" depart="2234.48" type="motorela">
        <route edges="east_florentino_0 north_osmena_2 north_osmena_3" />
    </vehicle>
    <vehicle id="50_37" depart="2296.55" type="motorela">
        <route edges="west_recto_0 west_recto_1 north_roa_0 north_roa_1" />
    </vehicle>
    <vehicle id="50_38" depart="2358.62" type="motorela">
        <route edges="south_roa_0 south_roa_1 west_recto_2 south_osmena_3" />
    </vehicle>
    <vehicle id="50_39" depart="2420.69" type="motorela">
        <route edges="east_florentino_0 north_osmena_2 north_osmena_3" />
    </vehicle>
    <vehicle id="50_40" depart="2482.76" type="motorela">
        <route edges="north_osmena_0 north_osmena_1 west_florentino_0" />
    </vehicle>
    <vehicle id="50_41" depart="2544.83" type="motorela">
        <route edges="west_recto_0 west_recto_1 north_roa_0 north_roa_1" />
    </vehicle>
    <vehicle id="50_42" depart="2606.90" type="motorela">
        <route edges="north_corrales_0 north_corrales_1 north_corrales_2" />
    </vehicle>
    <vehicle id="50_43" depart="2668.97" type="motorela">
        <route edges="south_osmena_0 east_luna_0 north_roa_1" />
    </vehicle>
    <vehicle id="50_44" depart="2731.03" type="motorela">
        <route edges="south_corrales_0 south_corrales_1 east_recto_3" />
    </vehicle>
    <vehicle id="50_45" depart="2793.10" type="motorela">
        <route edges="north_corrales_0 north_corrales_1 north_corrales_2" />
    </vehicle>
    <vehicle id="50_46" depart="2855.17" type="motorela">
        <route edges="north_osmena_0 east_recto_1 east_recto_2 east_recto_3" />
    </vehicle>
    <vehicle id="50_47" depart="2917.24" type="motorela">
        <route edges="north_corrales_0 north_corrales_1 north_corrales_2" />
    </vehicle>
    <vehicle id="50_48" depart="2979.31" type="motorela">
        <route edges="south_roa_0 east_luna_1 east_luna_2" />
    </vehicle>
    <vehicle id="50_49" depart="3041.38" type="motorela">
        <route edges="south_osmena_0 south_osmena_1 south_osmena_2 south_osmena_3" />
    </vehicle>
    <vehicle id="50_50" depart="3103.45" type="motorela">
        <route edges="south_roa_0 south_roa_1 east_recto_2 east_recto_3" />
    </vehicle>
    <vehicle id="50_51" depart="3165.52" type="motorela">
        <route edges="south_corrales_0 south_corrales_1 south_corrales_2" />
    </vehicle>
    <vehicle id="50_52" depart="3227.59" type="motorela">
        <route edges="east_recto_0 east_recto_1 east_recto_2 east_recto_3" />
    </vehicle>
    <vehicle id="50_53" depart="3289.66" type="motorela">
        <route edges="north_osmena_0 east_recto_1 east_recto_2 east_recto_3" />
    </vehicle>
    <vehicle id="50_54" depart="3351.72" type="motorela">
        <route edges="south_osmena_0 south_osmena_1 south_osmena_2 west_recto_3" />
    </vehicle>
    <vehicle id="50_55" depart="3413.79" type="motorela">
        <route edges="south_roa_0 west_luna_2 north_osmena_3" />
    </vehicle>
    <vehicle id="50_56" depart="3475.86" type="motorela">
        <route edges="north_corrales_0 east_recto_3" />
    </vehicle>
    <vehicle id="50_57" depart="3537.93" type="motorela">
        <route edges="north_corrales_0 north_corrales_1 north_corrales_2" />
    </vehicle>

    <vehicle id="53600_0" depart="3600.00" type="motorela">
        <route edges="east_florentino_0 north_osmena_2 south_osmena_1 west_florentino_0" />
    </vehicle>
    <vehicle id="53600_1" depart="3636.36" type="motorela">
        <route edges="north_corrales_0 north_corrales_1 north_corrales_2" />
    </vehicle>
    <vehicle id="53600_2" depart="3672.73" type="motorela">
        <route edges="east_recto_0 east_recto_1 east_recto_2 south_corrales_2" />
    </vehicle>
    <vehicle id="53600_3" depart="3709.09" type="motorela">
        <route edges="south_corrales_0 south_corrales_1 west_recto_1 west_recto_2 west_recto_3" />
    </vehicle>
    <vehicle id="53600_4" depart="3745.45" type="motorela">
        <route edges="west_luna_0 north_corrales_2" />
    </vehicle>
    <vehicle id="53600_5" depart="3781.82" type="motorela">
        <route edges="east_florentino_0 south_osmena_2 south_osmena_3" />
    </vehicle>
    <vehicle id="53600_6" depart="3818.18" type="motorela">
        <route edges="south_corrales_0 west_luna_1 south_roa_1 east_recto_2 north_corrales_1 north_corrales_2" />
    </vehicle>
    <vehicle id="53600_7" depart="3854.55" type="motorela">
        <route edges="west_luna_0 north_corrales_2" />
    </vehicle>
    <vehicle id="53600_8" depart="3890.91" type="motorela">
        <route edges="east_recto_0 east_recto_1 east_recto_2 south_corrales_2" />
    </vehicle>
    <vehicle id="53600_9" depart="3927.27" type="motorela">
        <route edges="south_corrales_0 south_corrales_1 south_corrales_2" />
    </vehicle>
    <vehicle id="53600_10" depart="3963.64" type="motorela">
        <route edges="east_recto_0 south_osmena_3" />
    </vehicle>
    <vehicle id="53600_11" depart="4000.00" type="motorela">
        <route edges="east_florentino_0 north_osmena_2 north_osmena_3" />
    </vehicle>
    <vehicle id="53600_12" depart="4036.36" type="motorela">
        <route edges="south_corrales_0 west_luna_1 south_roa_1 east_recto_2 north_corrales_1 north_corrales_2" />
    </vehicle>
    <vehicle id="53600_13" depart="4072.73" type="motorela">
        <route edges="east_florentino_0 north_osmena_2 east_luna_0 north_roa_1" />
    </vehicle>
    <vehicle id="53600_14" depart="4109.09" type="motorela">
        <route edges="west_luna_0 north_corrales_2" />
    </vehicle>
    <vehicle id="53600_15" depart="4145.45" type="motorela">
        <route edges="north_osmena_0 west_recto_3" />
    </vehicle>
    <vehicle id="53600_16" depart="4181.82" type="motorela">
        <route edges="east_florentino_0 north_osmena_2 north_osmena_3" />
    </vehicle>
    <vehicle id="53600_17" depart="4218.18" type="motorela">
        <route edges="south_corrales_0 south_corrales_1 south_corrales_2" />
    </vehicle>
    <vehicle id="53600_18" depart="4254.55" type="motorela">
        <route edges="west_luna_0 north_corrales_2" />
    </vehicle>
    <vehicle id="53600_19" depart="4290.91" type="motorela">
        <route edges="north_osmena_0 north_osmena_1 north_osmena_2 south_osmena_1 south_osmena_2 south_osmena_3" />
    </vehicle>
    <vehicle id="53600_20" depart="4327.27" type="motorela">
        <route edges="west_recto_0 north_corrales_1 north_corrales_2" />
    </vehicle>
    <vehicle id="53600_21" depart="4363.64" type="motorela">
        <route edges="east_florentino_0 north_osmena_2 north_osmena_3" />
    </vehicle>
    <vehicle id="53600_22" depart="4400.00" type="motorela">
        <route edges="east_florentino_0 south_osmena_2 south_osmena_3" />
    </vehicle>
    <vehicle id="53600_23" depart="4436.36" type="motorela">
        <route edges="north_osmena_0 east_recto_1 east_recto_2 east_recto_3" />
    </vehicle>
    <vehicle id="53600_24" depart="4472.73" type="motorela">
        <route edges="west_luna_0 north_corrales_2" />
    </vehicle>
    <vehicle id="53600_25" depart="4509.09" type="motorela">
        <route edges="west_luna_0 north_corrales_2" />
    </vehicle>
    <vehicle id="53600_26" depart="4545.45" type="motorela">
        <route edges="north_corrales_0 north_corrales_1 north_corrales_2" />
    </vehicle>
    <vehicle id="53600_27" depart="4581.82" type="motorela">
        <route edges="south_corrales_0 south_corrales_1 east_recto_3" />
    </vehicle>
    <vehicle id="53600_28" depart="4618.18" type="motorela">
        <route edges="north_osmena_0 north_osmena_1 north_osmena_2 south_osmena_1 south_osmena_2 south_osmena_3" />
    </vehicle>
    <vehicle id="53600_29" depart="4654.55" type="motorela">
        <route edges="west_luna_0 north_corrales_2" />
    </vehicle>
    <vehicle id="53600_30" depart="4690.91" type="motorela">
        <route edges="north_osmena_0 north_osmena_1 north_osmena_2 north_osmena_3" />
    </vehicle>
    <vehicle id="53600_31" depart="4727.27" type="motorela">
        <route edges="south_corrales_0 south_corrales_1 south_corrales_2" />
    </vehicle>
    <vehicle id="53600_32" depart="4763.64" type="motorela">
        <route edges="east_recto_0 north_osmena_1 west_florentino_0" />
    </vehicle>
    <vehicle id="53600_33" depart="4800.00" type="motorela">
        <route edges="west_recto_0 north_corrales_1 north_corrales_2" />
    </vehicle>
    <vehicle id="53600_34" depart="4836.36" type="motorela">
        <route edges="east_florentino_0 north_osmena_2 north_osmena_3" />
    </vehicle>
    <vehicle id="53600_35" depart="4872.73" type="motorela">
        <route edges="east_florentino_0 north_osmena_2 north_osmena_3" />
    </vehicle>
    <vehicle id="53600_36" depart="4909.09" type="motorela">
        <route edges="north_osmena_0 west_recto_3" />
    </vehicle>
    <vehicle id="53600_37" depart="4945.45" type="motorela">
        <route edges="south_corrales_0 south_corrales_1 east_recto_3" />
    </vehicle>
    <vehicle id="53600_38" depart="4981.82" type="motorela">
        <route edges="south_roa_0 west_luna_2 north_osmena_3" />
    </vehicle>
    <vehicle id="53600_39" depart="5018.18" type="motorela">
        <route edges="south_corrales_0 south_corrales_1 south_corrales_2" />
    </vehicle>
    <vehicle id="53600_40" depart="5054.55" type="motorela">
        <route edges="south_roa_0 south_roa_1 east_recto_2 east_recto_3" />
    </vehicle>
    <vehicle id="53600_41" depart="5090.91" type="motorela">
        <route edges="north_osmena_0 east_recto_1 east_recto_2 east_recto_3" />
    </vehicle>
    <vehicle id="53600_42" depart="5127.27" type="motorela">
        <route edges="west_recto_0 north_corrales_1 east_luna_2" />
    </vehicle>
    <vehicle id="53600_43" depart="5163.64" type="motorela">
        <route edges="north_osmena_0 east_recto_1 east_recto_2 east_recto_3" />
    </vehicle>
    <vehicle id="53600_44" depart="5200.00" type="motorela">
        <route edges="east_florentino_0 north_osmena_2 east_luna_0 east_luna_1 east_luna_2" />
    </vehicle>
    <vehicle id="53600_45" depart="5236.36" type="motorela">
        <route edges="north_osmena_0 east_recto_1 north_roa_0 north_roa_1" />
    </vehicle>
    <vehicle id="53600_46" depart="5272.73" type="motorela">
        <route edges="south_osmena_0 south_osmena_1 west_florentino_0" />
    </vehicle>
    <vehicle id="53600_47" depart="5309.09" type="motorela">
        <route edges="south_roa_0 south_roa_1 east_recto_2 north_corrales_1 north_corrales_2" />
    </vehicle>
    <vehicle id="53600_48" depart="5345.45" type="motorela">
        <route edges="north_corrales_0 north_corrales_1 north_corrales_2" />
    </vehicle>
    <vehicle id="53600_49" depart="5381.82" type="motorela">
        <route edges="north_osmena_0 east_recto_1 east_recto_2 north_corrales_1 north_corrales_2" />
    </vehicle>
    <vehicle id="53600_50" depart="5418.18" type="motorela">
        <route edges="south_osmena_0 south_osmena_1 south_osmena_2 south_osmena_3" />
    </vehicle>
    <vehicle id="53600_51" depart="5454.55" type="motorela">
        <route edges="north_corrales_0 north_corrales_1 north_corrales_2" />
    </vehicle>
    <vehicle id="53600_52" depart="5490.91" type="motorela">
        <route edges="east_florentino_0 south_osmena_2 west_recto_3" />
    </vehicle>
    <vehicle id="53600_53" depart="5527.27" type="motorela">
        <route edges="south_corrales_0 south_corrales_1 south_corrales_2" />
    </vehicle>
    <vehicle id="53600_54" depart="5563.64" type="motorela">
        <route edges="east_florentino_0 north_osmena_2 north_osmena_3" />
    </vehicle>
    <vehicle id="53600_55" depart="5600.00" type="motorela">
        <route edges="west_luna_0 west_luna_1 north_roa_1" />
    </vehicle>
    <vehicle id="53600_56" depart="5636.36" type="motorela">
        <route edges="east_florentino_0 north_osmena_2 north_osmena_3" />
    </vehicle>
    <vehicle id="53600_57" depart="5672.73" type="motorela">
        <route edges="south_osmena_0 south_osmena_1 south_osmena_2 east_recto_1 east_recto_2 east_recto_3" />
    </vehicle>
    <vehicle id="53600_58" depart="5709.09" type="motorela">
        <route edges="east_recto_0 east_recto_1 east_recto_2 east_recto_3" />
    </vehicle>
    <vehicle id="53600_59" depart="5745.45" type="motorela">
        <route edges="north_corrales_0 west_recto_1 west_recto_2 west_recto_3" />
    </vehicle>
    <vehicle id="53600_60" depart="5781.82" type="motorela">
        <route edges="south_roa_0 east_luna_1 east_luna_2" />
    </vehicle>
    <vehicle id="53600_61" depart="5818.18" type="motorela">
        <route edges="north_corrales_0 east_recto_3" />
    </vehicle>
    <vehicle id="53600_62" depart="5854.55" type="motorela">
        <route edges="east_recto_0 east_recto_1 east_recto_2 east_recto_3" />
    </vehicle>
    <vehicle id="53600_63" depart="5890.91" type="motorela">
        <route edges="north_corrales_0 east_recto_3" />
    </vehicle>
    <vehicle id="53600_64" depart="5927.27" type="motorela">
        <route edges="west_recto_0 north_corrales_1 north_corrales_2" />
    </vehicle>
    <vehicle id="53600_65" depart="5963.64" type="motorela">
        <route edges="south_corrales_0 south_corrales_1 east_recto_3" />
    </vehicle>
    <vehicle id="53600_66" depart="6000.00" type="motorela">
        <route edges="west_luna_0 north_corrales_2" />
    </vehicle>
    <vehicle id="53600_67" depart="6036.36" type="motorela">
        <route edges="west_luna_0 north_corrales_2" />
    </vehicle>
    <vehicle id="53600_68" depart="6072.73" type="motorela">
        <route edges="east_recto_0 east_recto_1 east_recto_2 east_recto_3" />
    </vehicle>
    <vehicle id="53600_69" depart="6109.09" type="motorela">
        <route edges="north_corrales_0 north_corrales_1 east_luna_2" />
    </vehicle>
    <vehicle id="53600_70" depart="6145.45" type="motorela">
        <route edges="north_corrales_0 north_corrales_1 east_luna_2" />
    </vehicle>
    <vehicle id="53600_71" depart="6181.82" type="motorela">
        <route edges="east_recto_0 north_osmena_1 west_florentino_0" />
    </vehicle>
    <vehicle id="53600_72" depart="6218.18" type="motorela">
        <route edges="west_luna_0 north_corrales_2" />
    </vehicle>
    <vehicle id="53600_73" depart="6254.55" type="motorela">
        <route edges="north_osmena_0 east_recto_1 north_roa_0 north_roa_1" />
    </vehicle>
    <vehicle id="53600_74" depart="6290.91" type="motorela">
        <route edges="south_osmena_0 east_luna_0 east_luna_1 east_luna_2" />
    </vehicle>
    <vehicle id="53600_75" depart="6327.27" type="motorela">
        <route edges="south_roa_0 south_roa_1 east_recto_2 east_recto_3" />
    </vehicle>
    <vehicle id="53600_76" depart="6363.64" type="motorela">
        <route edges="south_corrales_0 south_corrales_1 south_corrales_2" />
    </vehicle>
    <vehicle id="53600_77" depart="6400.00" type="motorela">
        <route edges="north_osmena_0 north_osmena_1 north_osmena_2 north_osmena_3" />
    </vehicle>
    <vehicle id="53600_78" depart="6436.36" type="motorela">
        <route edges="west_luna_0 north_corrales_2" />
    </vehicle>
    <vehicle id="53600_79" depart="6472.73" type="motorela">
        <route edges="north_corrales_0 north_corrales_1 north_corrales_2" />
    </vehicle>
    <vehicle id="53600_80" depart="6509.09" type="motorela">
        <route edges="east_florentino_0 north_osmena_2 south_osmena_1 west_florentino_0" />
    </vehicle>
    <vehicle id="53600_81" depart="6545.45" type="motorela">
        <route edges="south_corrales_0 south_corrales_1 south_corrales_2" />
    </vehicle>
    <vehicle id="53600_82" depart="6581.82" type="motorela">
        <route edges="west_recto_0 north_corrales_1 north_corrales_2" />
    </vehicle>
    <vehicle id="53600_83" depart="6618.18" type="motorela">
        <route edges="west_recto_1 north_roa_0 east_luna_1 east_luna_2" />
    </vehicle>
    <vehicle id="53600_84" depart="6654.55" type="motorela">
        <route edges="east_florentino_0 north_osmena_2 east_luna_0 north_roa_1" />
    </vehicle>
    <vehicle id="53600_85" depart="6690.91" type="motorela">
        <route edges="west_recto_0 south_corrales_2" />
    </vehicle>
    <vehicle id="53600_86" depart="6727.27" type="motorela">
        <route edges="east_florentino_0 north_osmena_2 north_osmena_3" />
    </vehicle>
    <vehicle id="53600_87" depart="6763.64" type="motorela">
        <route edges="east_florentino_0 north_osmena_2 north_osmena_3" />
    </vehicle>
    <vehicle id="53600_88" depart="6800.00" type="motorela">
        <route edges="south_roa_0 east_luna_1 east_luna_2" />
    </vehicle>
    <vehicle id="53600_89" depart="6836.36" type="motorela">
        <route edges="south_corrales_0 west_luna_1 west_luna_2 south_osmena_1 west_florentino_0" />
    </vehicle>
    <vehicle id="53600_90" depart="6872.73" type="motorela">
        <route edges="east_recto_0 east_recto_1 east_recto_2 east_recto_3" />
    </vehicle>
    <vehicle id="53600_91" depart="6909.09" type="motorela">
        <route edges="south_osmena_0 south_osmena_1 south_osmena_2 south_osmena_3" />
    </vehicle>
    <vehicle id="53600_92" depart="6945.45" type="motorela">
        <route edges="north_corrales_0 north_corrales_1 north_corrales_2" />
    </vehicle>
    <vehicle id="53600_93" depart="6981.82" type="motorela">
        <route edges="west_recto_0 west_recto_1 west_recto_2 north_osmena_1 north_osmena_2 south_osmena_1 south_osmena_2 east_recto_1 east_recto_2 east_recto_3" />
    </vehicle>
    <vehicle id="53600_94" depart="7018.18" type="motorela">
        <route edges="west_luna_0 west_luna_1 north_roa_1" />
    </vehicle>
    <vehicle id="53600_95" depart="7054.55" type="motorela">
        <route edges="east_recto_0 south_osmena_3" />
    </vehicle>
    <vehicle id="53600_96" depart="7090.91" type="motorela">
        <route edges="south_osmena_0 south_osmena_1 south_osmena_2 east_recto_1 east_recto_2 east_recto_3" />
    </vehicle>
    <vehicle id="53600_97" depart="7127.27" type="motorela">
        <route edges="east_recto_0 east_recto_1 east_recto_2 south_corrales_2" />
    </vehicle>
    <vehicle id="53600_98" depart="7163.64" type="motorela">
        <route edges="east_florentino_0 north_osmena_2 south_osmena_1 west_florentino_0" />
    </vehicle>

    <vehicle id="57200_0" depart="7200.00" type="motorela">
        <route edges="east_florentino_0 north_osmena_2 east_luna_0 north_roa_1" />
    </vehicle>
    <vehicle id="57200_1" depart="7222.93" type="motorela">
        <route edges="north_corrales_0 north_corrales_1 north_corrales_2" />
    </vehicle>
    <vehicle id="57200_2" depart="7245.86" type="motorela">
        <route edges="south_corrales_0 south_corrales_1 south_corrales_2" />
    </vehicle>
    <vehicle id="57200_3" depart="7268.79" type="motorela">
        <route edges="west_recto_0 north_corrales_1 east_luna_2" />
    </vehicle>
    <vehicle id="57200_4" depart="7291.72" type="motorela">
        <route edges="north_osmena_0 north_osmena_1 north_osmena_2 south_osmena_1 south_osmena_2 south_osmena_3" />
    </vehicle>
    <vehicle id="57200_5" depart="7314.65" type="motorela">
        <route edges="north_osmena_0 north_osmena_1 north_osmena_2 north_osmena_3" />
    </vehicle>
    <vehicle id="57200_6" depart="7337.58" type="motorela">
        <route edges="east_recto_0 east_recto_1 east_recto_2 east_recto_3" />
    </vehicle>
    <vehicle id="57200_7" depart="7360.51" type="motorela">
        <route edges="east_florentino_0 north_osmena_2 north_osmena_3" />
    </vehicle>
    <vehicle id="57200_8" depart="7383.44" type="motorela">
        <route edges="east_recto_0 east_recto_1 north_roa_0 north_roa_1" />
    </vehicle>
    <vehicle id="57200_9" depart="7406.37" type="motorela">
        <route edges="north_osmena_0 north_osmena_1 north_osmena_2 north_osmena_3" />
    </vehicle>
    <vehicle id="57200_10" depart="7429.30" type="motorela">
        <route edges="north_corrales_0 north_corrales_1 north_corrales_2" />
    </vehicle>
    <vehicle id="57200_11" depart="7452.23" type="motorela">
        <route edges="west_recto_0 north_corrales_1 north_corrales_2" />
    </vehicle>
    <vehicle id="57200_12" depart="7475.16" type="motorela">
        <route edges="east_florentino_0 north_osmena_2 north_osmena_3" />
    </vehicle>
    <vehicle id="57200_13" depart="7498.09" type="motorela">
        <route edges="west_recto_0 north_corrales_1 north_corrales_2" />
    </vehicle>
    <vehicle id="57200_14" depart="7521.02" type="motorela">
        <route edges="south_osmena_0 east_luna_0 north_roa_1" />
    </vehicle>
    <vehicle id="57200_15" depart="7543.95" type="motorela">
        <route edges="west_luna_0 north_corrales_2" />
    </vehicle>
    <vehicle id="57200_16" depart="7566.88" type="motorela">
        <route edges="east_florentino_0 south_osmena_2 west_recto_3" />
    </vehicle>
    <vehicle id="57200_17" depart="7589.81" type="motorela">
        <route edges="east_recto_0 north_osmena_1 north_osmena_2 north_osmena_3" />
    </vehicle>
    <vehicle id="57200_18" depart="7612.74" type="motorela">
        <route edges="south_osmena_0 south_osmena_1 west_florentino_0" />
    </vehicle>
    <vehicle id="57200_19" depart="7635.67" type="motorela">
        <route edges="north_osmena_0 east_recto_1 east_recto_2 east_recto_3" />
    </vehicle>
    <vehicle id="57200_20" depart="7658.60" type="motorela">
        <route edges="south_corrales_0 west_luna_1 north_roa_1" />
    </vehicle>
    <vehicle id="57200_21" depart="7681.53" type="motorela">
        <route edges="west_luna_0 north_corrales_2" />
    </vehicle>
    <vehicle id="57200_22" depart="7704.46" type="motorela">
        <route edges="east_florentino_0 north_osmena_2 north_osmena_3" />
    </vehicle>
    <vehicle id="57200_23" depart="7727.39" type="motorela">
        <route edges="east_florentino_0 north_osmena_2 south_osmena_1 west_florentino_0" />
    </vehicle>
    <vehicle id="57200_24" depart="7750.32" type="motorela">
        <route edges="west_luna_0 north_corrales_2" />
    </vehicle>
    <vehicle id="57200_25" depart="7773.25" type="motorela">
        <route edges="east_florentino_0 north_osmena_2 north_osmena_3" />
    </vehicle>
    <vehicle id="57200_26" depart="7796.18" type="motorela">
        <route edges="east_florentino_0 north_osmena_2 north_osmena_3" />
    </vehicle>
    <vehicle id="57200_27" depart="7819.11" type="motorela">
        <route edges="east_recto_0 south_osmena_3" />
    </vehicle>
    <vehicle id="57200_28" depart="7842.04" type="motorela">
        <route edges="south_roa_0 south_roa_1 west_recto_2 west_recto_3" />
    </vehicle>
    <vehicle id="57200_29" depart="7864.97" type="motorela">
        <route edges="west_luna_0 north_corrales_2" />
    </vehicle>
    <vehicle id="57200_30" depart="7887.90" type="motorela">
        <route edges="south_osmena_0 south_osmena_1 south_osmena_2 south_osmena_3" />
    </vehicle>
    <vehicle id="57200_31" depart="7910.83" type="motorela">
        <route edges="north_osmena_0 north_osmena_1 north_osmena_2 north_osmena_3" />
    </vehicle>
    <vehicle id="57200_32" depart="7933.76" type="motorela">
        <route edges="north_corrales_0 north_corrales_1 east_luna_2" />
    </vehicle>
    <vehicle id="57200_33" depart="7956.69" type="motorela">
        <route edges="north_corrales_0 east_recto_3" />
    </vehicle>
    <vehicle id="57200_34" depart="7979.62" type="motorela">
        <route edges="east_florentino_0 north_osmena_2 north_osmena_3" />
    </vehicle>
    <vehicle id="57200_35" depart="8002.55" type="motorela">
        <route edges="south_corrales_0 south_corrales_1 south_corrales_2" />
    </vehicle>
    <vehicle id="57200_36" depart="8025.48" type="motorela">
        <route edges="south_corrales_0 south_corrales_1 south_corrales_2" />
    </vehicle>
    <vehicle id="57200_37" depart="8048.41" type="motorela">
        <route edges="west_luna_0 north_corrales_2" />
    </vehicle>
    <vehicle id="57200_38" depart="8071.34" type="motorela">
        <route edges="south_osmena_0 south_osmena_1 west_florentino_0" />
    </vehicle>
    <vehicle id="57200_39" depart="8094.27" type="motorela">