<routes xmlns:xsi="http://www.w3.org/2001/XMLSchema-instance" xsi:noNamespaceSchemaLocation="http://sumo.dlr.de/xsd/routes_file.xsd">
<vType id="others" accel="0.8" decel="4.0" sigma="0.5" length="7.0" minGap="2.5" maxSpeed="30.0" guiShape="truck" color="0,0,255" />
    <vehicle id="60_0" depart="0.00" type="others">
        <route edges="west_luna_0 west_luna_1 north_roa_1" />
    </vehicle>
    <vehicle id="60_1" depart="53.73" type="others">
        <route edges="north_osmena_0 east_recto_1 east_recto_2 south_corrales_2" />
    </vehicle>
    <vehicle id="60_2" depart="107.46" type="others">
        <route edges="north_corrales_0 west_recto_1 west_recto_2 west_recto_3" />
    </vehicle>
    <vehicle id="60_3" depart="161.19" type="others">
        <route edges="north_corrales_0 west_recto_1 west_recto_2 west_recto_3" />
    </vehicle>
    <vehicle id="60_4" depart="214.93" type="others">
        <route edges="north_osmena_0 north_osmena_1 north_osmena_2 south_osmena_1 south_osmena_2 south_osmena_3" />
    </vehicle>
    <vehicle id="60_5" depart="268.66" type="others">
        <route edges="west_recto_1 north_roa_0 east_luna_1 east_luna_2" />
    </vehicle>
    <vehicle id="60_6" depart="322.39" type="others">
        <route edges="south_corrales_0 west_luna_1 west_luna_2 south_osmena_1 west_florentino_0" />
    </vehicle>
    <vehicle id="60_7" depart="376.12" type="others">
        <route edges="south_corrales_0 south_corrales_1 west_recto_1 west_recto_2 west_recto_3" />
    </vehicle>
    <vehicle id="60_8" depart="429.85" type="others">
        <route edges="north_corrales_0 west_recto_1 west_recto_2 north_osmena_1 north_osmena_2 north_osmena_3" />
    </vehicle>
    <vehicle id="60_9" depart="483.58" type="others">
        <route edges="north_corrales_0 west_recto_1 north_roa_0 north_roa_1" />
    </vehicle>
    <vehicle id="60_10" depart="537.31" type="others">
        <route edges="north_osmena_0 north_osmena_1 north_osmena_2 south_osmena_1 south_osmena_2 south_osmena_3" />
    </vehicle>
    <vehicle id="60_11" depart="591.04" type="others">
        <route edges="west_recto_0 west_recto_1 west_recto_2 west_recto_3" />
    </vehicle>
    <vehicle id="60_12" depart="644.78" type="others">
        <route edges="east_florentino_0 south_osmena_2 east_recto_1 north_roa_0 west_luna_2" />
    </vehicle>
    <vehicle id="60_13" depart="698.51" type="others">
        <route edges="north_corrales_0 west_recto_1 west_recto_2 north_osmena_1 north_osmena_2 south_osmena_1 south_osmena_2 east_recto_1 east_recto_2 south_corrales_2" />
    </vehicle>
    <vehicle id="60_14" depart="752.24" type="others">
        <route edges="east_florentino_0 north_osmena_2 east_luna_0 east_luna_1 east_luna_2" />
    </vehicle>
    <vehicle id="60_15" depart="805.97" type="others">
        <route edges="south_roa_0 south_roa_1 west_recto_2 south_osmena_3" />
    </vehicle>
    <vehicle id="60_16" depart="859.70" type="others">
        <route edges="south_osmena_0 south_osmena_1 south_osmena_2 east_recto_1 east_recto_2 east_recto_3" />
    </vehicle>
    <vehicle id="60_17" depart="913.43" type="others">
        <route edges="north_corrales_0 west_recto_1 west_recto_2 south_osmena_3" />
    </vehicle>
    <vehicle id="60_18" depart="967.16" type="others">
        <route edges="south_roa_0 west_luna_2 north_osmena_3" />
    </vehicle>
    <vehicle id="60_19" depart="1020.90" type="others">
        <route edges="north_osmena_0 north_osmena_1 north_osmena_2 south_osmena_1 south_osmena_2 south_osmena_3" />
    </vehicle>
    <vehicle id="60_20" depart="1074.63" type="others">
        <route edges="east_recto_0 east_recto_1 east_recto_2 north_corrales_1 east_luna_2" />
    </vehicle>
    <vehicle id="60_21" depart="1128.36" type="others">
        <route edges="south_roa_0 east_luna_1 east_luna_2" />
    </vehicle>
    <vehicle id="60_22" depart="1182.09" type="others">
        <route edges="east_recto_0 east_recto_1 east_recto_2 north_corrales_1 east_luna_2" />
    </vehicle>
    <vehicle id="60_23" depart="1235.82" type="others">
        <route edges="west_luna_0 west_luna_1 south_roa_1 west_recto_2 west_recto_3" />
    </vehicle>
    <vehicle id="60_24" depart="1289.55" type="others">
        <route edges="east_recto_0 east_recto_1 east_recto_2 north_corrales_1 east_luna_2" />
    </vehicle>
    <vehicle id="60_25" depart="1343.28" type="others">
        <route edges="east_recto_0 east_recto_1 east_recto_2 east_recto_3" />
    </vehicle>
    <vehicle id="60_26" depart="1397.01" type="others">
        <route edges="north_corrales_0 west_recto_1 west_recto_2 west_recto_3" />
    </vehicle>
    <vehicle id="60_27" depart="1450.75" type="others">
        <route edges="north_corrales_0 west_recto_1 west_recto_2 west_recto_3" />
    </vehicle>
    <vehicle id="60_28" depart="1504.48" type="others">
        <route edges="north_corrales_0 west_recto_1 west_recto_2 west_recto_3" />
    </vehicle>
    <vehicle id="60_29" depart="1558.21" type="others">
        <route edges="west_recto_0 west_recto_1 west_recto_2 west_recto_3" />
    </vehicle>
    <vehicle id="60_30" depart="1611.94" type="others">
        <route edges="west_luna_0 west_luna_1 south_roa_1 west_recto_2 west_recto_3" />
    </vehicle>
    <vehicle id="60_31" depart="1665.67" type="others">
        <route edges="east_recto_0 east_recto_1 east_recto_2 east_recto_3" />
    </vehicle>
    <vehicle id="60_32" depart="1719.40" type="others">
        <route edges="south_osmena_0 south_osmena_1 south_osmena_2 west_recto_3" />
    </vehicle>
    <vehicle id="60_33" depart="1773.13" type="others">
        <route edges="west_recto_0 west_recto_1 west_recto_2 west_recto_3" />
    </vehicle>
    <vehicle id="60_34" depart="1826.87" type="others">
        <route edges="south_roa_0 south_roa_1 east_recto_2 north_corrales_1 north_corrales_2" />
    </vehicle>
    <vehicle id="60_35" depart="1880.60" type="others">
        <route edges="east_recto_0 south_osmena_3" />
    </vehicle>
    <vehicle id="60_36" depart="1934.33" type="others">
        <route edges="north_corrales_0 west_recto_1 west_recto_2 north_osmena_1 north_osmena_2 north_osmena_3" />
    </vehicle>
    <vehicle id="60_37" depart="1988.06" type="others">
        <route edges="south_corrales_0 south_corrales_1 west_recto_1 west_recto_2 west_recto_3" />
    </vehicle>
    <vehicle id="60_38" depart="2041.79" type="others">
        <route edges="north_corrales_0 west_recto_1 west_recto_2 west_recto_3" />
    </vehicle>
    <vehicle id="60_39" depart="2095.52" type="others">
        <route edges="north_corrales_0 west_recto_1 west_recto_2 north_osmena_1 west_florentino_0" />
    </vehicle>
    <vehicle id="60_40" depart="2149.25" type="others">
        <route edges="south_corrales_0 south_corrales_1 west_recto_1 west_recto_2 west_recto_3" />
    </vehicle>
    <vehicle id="60_41" depart="2202.99" type="others">
        <route edges="south_roa_0 east_luna_1 east_luna_2" />
    </vehicle>
    <vehicle id="60_42" depart="2256.72" type="others">
        <route edges="east_recto_0 east_recto_1 north_roa_0 north_roa_1" />
    </vehicle>
    <vehicle id="60_43" depart="2310.45" type="others">
        <route edges="east_florentino_0 north_osmena_2 north_osmena_3" />
    </vehicle>
    <vehicle id="60_44" depart="2364.18" type="others">
        <route edges="east_florentino_0 north_osmena_2 north_osmena_3" />
    </vehicle>
    <vehicle id="60_45" depart="2417.91" type="others">
        <route edges="west_recto_0 west_recto_1 west_recto_2 west_recto_3" />
    </vehicle>
    <vehicle id="60_46" depart="2471.64" type="others">
        <route edges="west_luna_0 west_luna_1 north_roa_1" />
    </vehicle>
    <vehicle id="60_47" depart="2525.37" type="others">
        <route edges="east_recto_0 north_osmena_1 north_osmena_2 north_osmena_3" />
    </vehicle>
    <vehicle id="60_48" depart="2579.10" type="others">
        <route edges="south_osmena_0 south_osmena_1 west_florentino_0" />
    </vehicle>
    <vehicle id="60_49" depart="2632.84" type="others">
        <route edges="east_recto_0 east_recto_1 east_recto_2 north_corrales_1 east_luna_2" />
    </vehicle>
    <vehicle id="60_50" depart="2686.57" type="others">
        <route edges="north_corrales_0 west_recto_1 west_recto_2 west_recto_3" />
    </vehicle>
    <vehicle id="60_51" depart="2740.30" type="others">
        <route edges="north_corrales_0 west_recto_1 west_recto_2 south_osmena_3" />
    </vehicle>
    <vehicle id="60_52" depart="2794.03" type="others">
        <route edges="north_osmena_0 north_osmena_1 north_osmena_2 north_osmena_3" />
    </vehicle>
    <vehicle id="60_53" depart="2847.76" type="others">
        <route edges="west_recto_0 west_recto_1 west_recto_2 west_recto_3" />
    </vehicle>
    <vehicle id="60_54" depart="2901.49" type="others">
        <route edges="south_osmena_0 east_luna_0 east_luna_1 east_luna_2" />
    </vehicle>
    <vehicle id="60_55" depart="2955.22" type="others">
        <route edges="east_recto_0 east_recto_1 east_recto_2 north_corrales_1 east_luna_2" />
    </vehicle>
    <vehicle id="60_56" depart="3008.96" type="others">
        <route edges="south_corrales_0 south_corrales_1 west_recto_1 west_recto_2 west_recto_3" />
    </vehicle>
    <vehicle id="60_57" depart="3062.69" type="others">
        <route edges="east_florentino_0 north_osmena_2 north_osmena_3" />
    </vehicle>
    <vehicle id="60_58" depart="3116.42" type="others">
        <route edges="west_recto_0 west_recto_1 west_recto_2 west_recto_3" />
    </vehicle>
    <vehicle id="60_59" depart="3170.15" type="others">
        <route edges="east_recto_0 east_recto_1 east_recto_2 north_corrales_1 east_luna_2" />
    </vehicle>
    <vehicle id="60_60" depart="3223.88" type="others">
        <route edges="east_florentino_0 north_osmena_2 north_osmena_3" />
    </vehicle>
    <vehicle id="60_61" depart="3277.61" type="others">
        <route edges="east_florentino_0 north_osmena_2 east_luna_0 east_luna_1 east_luna_2" />
    </vehicle>
    <vehicle id="60_62" depart="3331.34" type="others">
        <route edges="north_corrales_0 west_recto_1 west_recto_2 west_recto_3" />
    </vehicle>
    <vehicle id="60_63" depart="3385.07" type="others">
        <route edges="south_roa_0 south_roa_1 west_recto_2 south_osmena_3" />
    </vehicle>
    <vehicle id="60_64" depart="3438.81" type="others">
        <route edges="west_recto_0 west_recto_1 west_recto_2 west_recto_3" />
    </vehicle>
    <vehicle id="60_65" depart="3492.54" type="others">
        <route edges="north_osmena_0 east_recto_1 east_recto_2 north_corrales_1 north_corrales_2" />
    </vehicle>
    <vehicle id="60_66" depart="3546.27" type="others">
        <route edges="south_osmena_0 south_osmena_1 south_osmena_2 west_recto_3" />
    </vehicle>

    <vehicle id="63600_0" depart="3600.00" type="others">
        <route edges="north_osmena_0 north_osmena_1 west_florentino_0" />
    </vehicle>
    <vehicle id="63600_1" depart="3633.33" type="others">
        <route edges="east_recto_0 east_recto_1 east_recto_2 north_corrales_1 north_corrales_2" />
    </vehicle>
    <vehicle id="63600_2" depart="3666.67" type="others">
        <route edges="east_florentino_0 north_osmena_2 north_osmena_3" />
    </vehicle>
    <vehicle id="63600_3" depart="3700.00" type="others">
        <route edges="north_osmena_0 north_osmena_1 north_osmena_2 south_osmena_1 south_osmena_2 south_osmena_3" />
    </vehicle>
    <vehicle id="63600_4" depart="3733.33" type="others">
        <route edges="east_recto_0 south_osmena_3" />
    </vehicle>
    <vehicle id="63600_5" depart="3766.67" type="others">
        <route edges="east_florentino_0 north_osmena_2 north_osmena_3" />
    </vehicle>
    <vehicle id="63600_6" depart="3800.00" type="others">
        <route edges="south_corrales_0 south_corrales_1 west_recto_1 west_recto_2 west_recto_3" />
    </vehicle>
    <vehicle id="63600_7" depart="3833.33" type="others">
        <route edges="south_corrales_0 south_corrales_1 west_recto_1 west_recto_2 west_recto_3" />
    </vehicle>
    <vehicle id="63600_8" depart="3866.67" type="others">
        <route edges="west_recto_0 west_recto_1 west_recto_2 west_recto_3" />
    </vehicle>
    <vehicle id="63600_9" depart="3900.00" type="others">
        <route edges="east_recto_0 east_recto_1 east_recto_2 south_corrales_2" />
    </vehicle>
    <vehicle id="63600_10" depart="3933.33" type="others">
        <route edges="east_recto_0 east_recto_1 east_recto_2 south_corrales_2" />
    </vehicle>
    <vehicle id="63600_11" depart="3966.67" type="others">
        <route edges="south_corrales_0 south_corrales_1 west_recto_1 west_recto_2 south_osmena_3" />
    </vehicle>
    <vehicle id="63600_12" depart="4000.00" type="others">
        <route edges="south_corrales_0 south_corrales_1 west_recto_1 west_recto_2 west_recto_3" />
    </vehicle>
    <vehicle id="63600_13" depart="4033.33" type="others">
        <route edges="east_recto_0 east_recto_1 east_recto_2 north_corrales_1 north_corrales_2" />
    </vehicle>
    <vehicle id="63600_14" depart="4066.67" type="others">
        <route edges="east_florentino_0 north_osmena_2 north_osmena_3" />
    </vehicle>
    <vehicle id="63600_15" depart="4100.00" type="others">
        <route edges="east_recto_0 east_recto_1 east_recto_2 east_recto_3" />
    </vehicle>
    <vehicle id="63600_16" depart="4133.33" type="others">
        <route edges="north_osmena_0 west_recto_3" />
    </vehicle>
    <vehicle id="63600_17" depart="4166.67" type="others">
        <route edges="east_florentino_0 north_osmena_2 east_luna_0 north_roa_1" />
    </vehicle>
    <vehicle id="63600_18" depart="4200.00" type="others">
        <route edges="east_florentino_0 north_osmena_2 east_luna_0 north_roa_1" />
    </vehicle>
    <vehicle id="63600_19" depart="4233.33" type="others">
        <route edges="south_corrales_0 south_corrales_1 west_recto_1 west_recto_2 west_recto_3" />
    </vehicle>
    <vehicle id="63600_20" depart="4266.67" type="others">
        <route edges="west_recto_0 west_recto_1 west_recto_2 west_recto_3" />
    </vehicle>
    <vehicle id="63600_21" depart="4300.00" type="others">
        <route edges="north_corrales_0 west_recto_1 west_recto_2 south_osmena_3" />
    </vehicle>
    <vehicle id="63600_22" depart="4333.33" type="others">
        <route edges="north_corrales_0 west_recto_1 west_recto_2 west_recto_3" />
    </vehicle>
    <vehicle id="63600_23" depart="4366.67" type="others">
        <route edges="south_corrales_0 south_corrales_1 west_recto_1 west_recto_2 west_recto_3" />
    </vehicle>
    <vehicle id="63600_24" depart="4400.00" type="others">
        <route edges="east_recto_0 east_recto_1 east_recto_2 east_recto_3" />
    </vehicle>
    <vehicle id="63600_25" depart="4433.33" type="others">
        <route edges="north_corrales_0 west_recto_1 west_recto_2 west_recto_3" />
    </vehicle>
    <vehicle id="63600_26" depart="4466.67" type="others">
        <route edges="south_roa_0 east_luna_1 east_luna_2" />
    </vehicle>
    <vehicle id="63600_27" depart="4500.00" type="others">
        <route edges="south_corrales_0 south_corrales_1 west_recto_1 west_recto_2 west_recto_3" />
    </vehicle>
    <vehicle id="63600_28" depart="4533.33" type="others">
        <route edges="north_corrales_0 west_recto_1 west_recto_2 west_recto_3" />
    </vehicle>
    <vehicle id="63600_29" depart="4566.67" type="others">
        <route edges="north_corrales_0 west_recto_1 west_recto_2 north_osmena_1 north_osmena_2 south_osmena_1 south_osmena_2 east_recto_1 east_recto_2 south_corrales_2" />
    </vehicle>
    <vehicle id="63600_30" depart="4600.00" type="others">
        <route edges="south_osmena_0 south_osmena_1 south_osmena_2 east_recto_1 east_recto_2 south_corrales_2" />
    </vehicle>
    <vehicle id="63600_31" depart="4633.33" type="others">
        <route edges="east_recto_0 south_osmena_3" />
    </vehicle>
    <vehicle id="63600_32" depart="4666.67" type="others">
        <route edges="south_corrales_0 south_corrales_1 west_recto_1 west_recto_2 west_recto_3" />
    </vehicle>
    <vehicle id="63600_33" depart="4700.00" type="others">
        <route edges="north_corrales_0 west_recto_1 west_recto_2 west_recto_3" />
    </vehicle>
    <vehicle id="63600_34" depart="4733.33" type="others">
        <route edges="south_osmena_0 south_osmena_1 west_florentino_0" />
    </vehicle>
    <vehicle id="63600_35" depart="4766.67" type="others">
        <route edges="south_corrales_0 south_corrales_1 west_recto_1 west_recto_2 west_recto_3" />
    </vehicle>
    <vehicle id="63600_36" depart="4800.00" type="others">
        <route edges="east_florentino_0 south_osmena_2 south_osmena_3" />
    </vehicle>
    <vehicle id="63600_37" depart="4833.33" type="others">
        <route edges="south_corrales_0 south_corrales_1 west_recto_1 west_recto_2 south_osmena_3" />
    </vehicle>
    <vehicle id="63600_38" depart="4866.67" type="others">
        <route edges="west_luna_0 west_luna_1 west_luna_2 south_osmena_1 west_florentino_0" />
    </vehicle>
    <vehicle id="63600_39" depart="4900.00" type="others">
        <route edges="west_recto_1 north_roa_0 east_luna_1 east_luna_2" />
    </vehicle>
    <vehicle id="63600_40" depart="4933.33" type="others">
        <route edges="east_recto_0 east_recto_1 north_roa_0 north_roa_1" />
    </vehicle>
    <vehicle id="63600_41" depart="4966.67" type="others">
        <route edges="south_corrales_0 south_corrales_1 west_recto_1 west_recto_2 west_recto_3" />
    </vehicle>
    <vehicle id="63600_42" depart="5000.00" type="others">
        <route edges="north_osmena_0 east_recto_1 east_recto_2 south_corrales_2" />
    </vehicle>
    <vehicle id="63600_43" depart="5033.33" type="others">
        <route edges="east_recto_0 east_recto_1 east_recto_2 east_recto_3" />
    </vehicle>
    <vehicle id="63600_44" depart="5066.67" type="others">
        <route edges="south_osmena_0 south_osmena_1 south_osmena_2 east_recto_1 east_recto_2 east_recto_3" />
    </vehicle>
    <vehicle id="63600_45" depart="5100.00" type="others">
        <route edges="south_roa_0 east_luna_1 east_luna_2" />
    </vehicle>
    <vehicle id="63600_46" depart="5133.33" type="others">
        <route edges="south_roa_0 south_roa_1 west_recto_2 south_osmena_3" />
    </vehicle>
    <vehicle id="63600_47" depart="5166.67" type="others">
        <route edges="west_recto_0 west_recto_1 west_recto_2 south_osmena_3" />
    </vehicle>
    <vehicle id="63600_48" depart="5200.00" type="others">
        <route edges="east_recto_0 east_recto_1 east_recto_2 north_corrales_1 north_corrales_2" />
    </vehicle>
    <vehicle id="63600_49" depart="5233.33" type="others">
        <route edges="west_recto_0 west_recto_1 west_recto_2 west_recto_3" />
    </vehicle>
    <vehicle id="63600_50" depart="5266.67" type="others">
        <route edges="east_florentino_0 north_osmena_2 north_osmena_3" />
    </vehicle>
    <vehicle id="63600_51" depart="5300.00" type="others">
        <route edges="north_corrales_0 west_recto_1 west_recto_2 west_recto_3" />
    </vehicle>
    <vehicle id="63600_52" depart="5333.33" type="others">
        <route edges="west_luna_0 west_luna_1 north_roa_1" />
    </vehicle>
    <vehicle id="63600_53" depart="5366.67" type="others">
        <route edges="west_recto_0 west_recto_1 west_recto_2 north_osmena_1 north_osmena_2 north_osmena_3" />
    </vehicle>
    <vehicle id="63600_54" depart="5400.00" type="others">
        <route edges="north_corrales_0 west_recto_1 west_recto_2 west_recto_3" />
    </vehicle>
    <vehicle id="63600_55" depart="5433.33" type="others">
        <route edges="east_florentino_0 north_osmena_2 north_osmena_3" />
    </vehicle>
    <vehicle id="63600_56" depart="5466.67" type="others">
        <route edges="south_roa_0 south_roa_1 west_recto_2 west_recto_3" />
    </vehicle>
    <vehicle id="63600_57" depart="5500.00" type="others">
        <route edges="north_corrales_0 west_recto_1 west_recto_2 north_osmena_1 north_osmena_2 south_osmena_1 south_osmena_2 east_recto_1 east_recto_2 south_corrales_2" />
    </vehicle>
    <vehicle id="63600_58" depart="5533.33" type="others">
        <route edges="west_recto_0 west_recto_1 west_recto_2 west_recto_3" />
    </vehicle>
    <vehicle id="63600_59" depart="5566.67" type="others">
        <route edges="east_recto_0 east_recto_1 east_recto_2 south_corrales_2" />
    </vehicle>
    <vehicle id="63600_60" depart="5600.00" type="others">
        <route edges="north_corrales_0 west_recto_1 west_recto_2 west_recto_3" />
    </vehicle>
    <vehicle id="63600_61" depart="5633.33" type="others">
        <route edges="south_roa_0 south_roa_1 east_recto_2 east_recto_3" />
    </vehicle>
    <vehicle id="63600_62" depart="5666.67" type="others">
        <route edges="south_roa_0 west_luna_2 north_osmena_3" />
    </vehicle>
    <vehicle id="63600_63" depart="5700.00" type="others">
        <route edges="north_osmena_0 north_osmena_1 north_osmena_2 north_osmena_3" />
    </vehicle>
    <vehicle id="63600_64" depart="5733.33" type="others">
        <route edges="north_corrales_0 west_recto_1 west_recto_2 west_recto_3" />
    </vehicle>
    <vehicle id="63600_65" depart="5766.67" type="others">
        <route edges="east_florentino_0 north_osmena_2 south_osmena_1 west_florentino_0" />
    </vehicle>
    <vehicle id="63600_66" depart="5800.00" type="others">
        <route edges="east_florentino_0 north_osmena_2 east_luna_0 east_luna_1 east_luna_2" />
    </vehicle>
    <vehicle id="63600_67" depart="5833.33" type="others">
        <route edges="east_recto_0 east_recto_1 east_recto_2 south_corrales_2" />
    </vehicle>
    <vehicle id="63600_68" depart="5866.67" type="others">
        <route edges="north_corrales_0 west_recto_1 west_recto_2 west_recto_3" />
    </vehicle>
    <vehicle id="63600_69" depart="5900.00" type="others">
        <route edges="south_corrales_0 south_corrales_1 west_recto_1 west_recto_2 west_recto_3" />
    </vehicle>
    <vehicle id="63600_70" depart="5933.33" type="others">
        <route edges="south_corrales_0 south_corrales_1 west_recto_1 west_recto_2 west_recto_3" />
    </vehicle>
    <vehicle id="63600_71" depart="5966.67" type="others">
        <route edges="east_recto_0 east_recto_1 east_recto_2 east_recto_3" />
    </vehicle>
    <vehicle id="63600_72" depart="6000.00" type="others">
        <route edges="south_corrales_0 south_corrales_1 west_recto_1 west_recto_2 west_recto_3" />
    </vehicle>
    <vehicle id="63600_73" depart="6033.33" type="others">
        <route edges="north_osmena_0 west_recto_3" />
    </vehicle>
    <vehicle id="63600_74" depart="6066.67" type="others">
        <route edges="south_osmena_0 south_osmena_1 west_florentino_0" />
    </vehicle>
    <vehicle id="63600_75" depart="6100.00" type="others">
        <route edges="north_corrales_0 west_recto_1 north_roa_0 north_roa_1" />
    </vehicle>
    <vehicle id="63600_76" depart="6133.33" type="others">
        <route edges="west_recto_0 west_recto_1 west_recto_2 west_recto_3" />
    </vehicle>
    <vehicle id="63600_77" depart="6166.67" type="others">
        <route edges="east_recto_0 south_osmena_3" />
    </vehicle>
    <vehicle id="63600_78" depart="6200.00" type="others">
        <route edges="north_osmena_0 north_osmena_1 north_osmena_2 south_osmena_1 south_osmena_2 south_osmena_3" />
    </vehicle>
    <vehicle id="63600_79" depart="6233.33" type="others">
        <route edges="north_corrales_0 west_recto_1 west_recto_2 west_recto_3" />
    </vehicle>
    <vehicle id="63600_80" depart="6266.67" type="others">
        <route edges="north_corrales_0 west_recto_1 west_recto_2 west_recto_3" />
    </vehicle>
    <vehicle id="63600_81" depart="6300.00" type="others">
        <route edges="east_recto_0 east_recto_1 east_recto_2 north_corrales_1 north_corrales_2" />
    </vehicle>
    <vehicle id="63600_82" depart="6333.33" type="others">
        <route edges="north_corrales_0 west_recto_1 west_recto_2 west_recto_3" />
    </vehicle>
    <vehicle id="63600_83" depart="6366.67" type="others">
        <route edges="south_corrales_0 west_luna_1 south_roa_1 east_recto_2 north_corrales_1 north_corrales_2" />
    </vehicle>
    <vehicle id="63600_84" depart="6400.00" type="others">
        <route edges="east_recto_0 north_osmena_1 west_florentino_0" />
    </vehicle>
    <vehicle id="63600_85" depart="6433.33" type="others">
        <route edges="north_corrales_0 west_recto_1 west_recto_2 south_osmena_3" />
    </vehicle>
    <vehicle id="63600_86" depart="6466.67" type="others">
        <route edges="east_recto_0 north_osmena_1 north_osmena_2 north_osmena_3" />
    </vehicle>
    <vehicle id="63600_87" depart="6500.00" type="others">
        <route edges="south_corrales_0 south_corrales_1 west_recto_1 west_recto_2 west_recto_3" />
    </vehicle>
    <vehicle id="63600_88" depart="6533.33" type="others">
        <route edges="north_osmena_0 west_recto_3" />
    </vehicle>
    <vehicle id="63600_89" depart="6566.67" type="others">
        <route edges="south_osmena_0 east_luna_0 east_luna_1 east_luna_2" />
    </vehicle>
    <vehicle id="63600_90" depart="6600.00" type="others">
        <route edges="east_recto_0 east_recto_1 east_recto_2 south_corrales_2" />
    </vehicle>
    <vehicle id="63600_91" depart="6633.33" type="others">
        <route edges="west_recto_0 west_recto_1 west_recto_2 west_recto_3" />
    </vehicle>
    <vehicle id="63600_92" depart="6666.67" type="others">
        <route edges="east_recto_0 east_recto_1 east_recto_2 north_corrales_1 east_luna_2" />
    </vehicle>
    <vehicle id="63600_93" depart="6700.00" type="others">
        <route edges="east_florentino_0 south_osmena_2 south_osmena_3" />
    </vehicle>
    <vehicle id="63600_94" depart="6733.33" type="others">
        <route edges="west_luna_0 west_luna_1 north_roa_1" />
    </vehicle>
    <vehicle id="63600_95" depart="6766.67" type="others">
        <route edges="north_osmena_0 north_osmena_1 west_florentino_0" />
    </vehicle>
    <vehicle id="63600_96" depart="6800.00" type="others">
        <route edges="east_recto_0 east_recto_1 east_recto_2 east_recto_3" />
    </vehicle>
    <vehicle id="63600_97" depart="6833.33" type="others">
        <route edges="east_recto_0 east_recto_1 east_recto_2 south_corrales_2" />
    </vehicle>
    <vehicle id="63600_98" depart="6866.67" type="others">
        <route edges="south_corrales_0 south_corrales_1 west_recto_1 west_recto_2 west_recto_3" />
    </vehicle>
    <vehicle id="63600_99" depart="6900.00" type="others">
        <route edges="west_recto_0 west_recto_1 west_recto_2 south_osmena_3" />
    </vehicle>
    <vehicle id="63600_100" depart="6933.33" type="others">
        <route edges="south_osmena_0 south_osmena_1 south_osmena_2 east_recto_1 east_recto_2 south_corrales_2" />
    </vehicle>
    <vehicle id="63600_101" depart="6966.67" type="others">
        <route edges="west_recto_0 west_recto_1 west_recto_2 west_recto_3" />
    </vehicle>
    <vehicle id="63600_102" depart="7000.00" type="others">
        <route edges="west_recto_0 west_recto_1 west_recto_2 north_osmena_1 north_osmena_2 north_osmena_3" />
    </vehicle>
    <vehicle id="63600_103" depart="7033.33" type="others">
        <route edges="east_recto_0 north_osmena_1 north_osmena_2 north_osmena_3" />
    </vehicle>
    <vehicle id="63600_104" depart="7066.67" type="others">
        <route edges="west_recto_0 west_recto_1 west_recto_2 west_recto_3" />
    </vehicle>
    <vehicle id="63600_105" depart="7100.00" type="others">
        <route edges="west_recto_0 west_recto_1 west_recto_2 west_recto_3" />
    </vehicle>
    <vehicle id="63600_106" depart="7133.33" type="others">
        <route edges="east_recto_0 north_osmena_1 north_osmena_2 north_osmena_3" />
    </vehicle>
    <vehicle id="63600_107" depart="7166.67" type="others">
        <route edges="west_luna_0 west_luna_1 south_roa_1 west_recto_2 west_recto_3" />
    </vehicle>

    <vehicle id="67200_0" depart="7200.00" type="others">
        <route edges="south_corrales_0 south_corrales_1 west_recto_1 west_recto_2 west_recto_3" />
    </vehicle>
    <vehicle id="67200_1" depart="7222.22" type="others">
        <route edges="north_osmena_0 north_osmena_1 north_osmena_2 north_osmena_3" />
    </vehicle>
    <vehicle id="67200_2" depart="7244.44" type="others">
        <route edges="east_recto_0 south_osmena_3" />
    </vehicle>
    <vehicle id="67200_3" depart="7266.67" type="others">
        <route edges="west_recto_0 west_recto_1 west_recto_2 west_recto_3" />
    </vehicle>
    <vehicle id="67200_4" depart="7288.89" type="others">
        <route edges="north_osmena_0 west_recto_3" />
    </vehicle>
    <vehicle id="67200_5" depart="7311.11" type="others">
        <route edges="south_corrales_0 south_corrales_1 west_recto_1 west_recto_2 west_recto_3" />
    </vehicle>
    <vehicle id="67200_6" depart="7333.33" type="others">
        <route edges="west_luna_0 west_luna_1 west_luna_2 south_osmena_1 west_florentino_0" />
    </vehicle>
    <vehicle id="67200_7" depart="7355.56" type="others">
        <route edges="east_florentino_0 north_osmena_2 south_osmena_1 west_florentino_0" />
    </vehicle>
    <vehicle id="67200_8" depart="7377.78" type="others">
        <route edges="north_corrales_0 west_recto_1 west_recto_2 west_recto_3" />
    </vehicle>
    <vehicle id="67200_9" depart="7400.00" type="others">
        <route edges="west_recto_0 west_recto_1 west_recto_2 west_recto_3" />
    </vehicle>
    <vehicle id="67200_10" depart="7422.22" type="others">
        <route edges="south_corrales_0 west_luna_1 south_roa_1 east_recto_2 north_corrales_1 east_luna_2" />
    </vehicle>
    <vehicle id="67200_11" depart="7444.44" type="others">
        <route edges="south_roa_0 west_luna_2 south_osmena_1 west_florentino_0" />
    </vehicle>
    <vehicle id="67200_12" depart="7466.67" type="others">