<routes xmlns:xsi="http://www.w3.org/2001/XMLSchema-instance" xsi:noNamespaceSchemaLocation="http://sumo.dlr.de/xsd/routes_file.xsd">
<vType id="smallTrucks" accel="0.8" decel="4.0" sigma="0.5" length="7.0" minGap="2.5" maxSpeed="30.0" guiShape="truck" color="0,0,255" /> 

    <vehicle id="70_0" depart="0.00" type="smallTrucks">
        <route edges="south_corrales_0 south_corrales_1 south_corrales_2" />
    </vehicle>
    <vehicle id="70_1" depart="18.27" type="smallTrucks">
        <route edges="east_recto_0 east_recto_1 east_recto_2 north_corrales_1 north_corrales_2" />
    </vehicle>
    <vehicle id="70_2" depart="36.55" type="smallTrucks">
        <route edges="west_recto_0 west_recto_1 west_recto_2 west_recto_3" />
    </vehicle>
    <vehicle id="70_3" depart="54.82" type="smallTrucks">
        <route edges="west_recto_1 north_roa_0 east_luna_1 east_luna_2" />
    </vehicle>
    <vehicle id="70_4" depart="73.10" type="smallTrucks">
        <route edges="east_florentino_0 north_osmena_2 east_luna_0 north_roa_1" />
    </vehicle>
    <vehicle id="70_5" depart="91.37" type="smallTrucks">
        <route edges="west_recto_0 north_corrales_1 east_luna_2" />
    </vehicle>
    <vehicle id="70_6" depart="109.64" type="smallTrucks">
        <route edges="south_roa_0 south_roa_1 west_recto_2 west_recto_3" />
    </vehicle>
    <vehicle id="70_7" depart="127.92" type="smallTrucks">
        <route edges="east_florentino_0 north_osmena_2 north_osmena_3" />
    </vehicle>
    <vehicle id="70_8" depart="146.19" type="smallTrucks">
        <route edges="south_osmena_0 east_luna_0 east_luna_1 east_luna_2" />
    </vehicle>
    <vehicle id="70_9" depart="164.47" type="smallTrucks">
        <route edges="west_recto_0 west_recto_1 north_roa_0 north_roa_1" />
    </vehicle>
    <vehicle id="70_10" depart="182.74" type="smallTrucks">
        <route edges="north_osmena_0 north_osmena_1 north_osmena_2 north_osmena_3" />
    </vehicle>
    <vehicle id="70_11" depart="201.02" type="smallTrucks">
        <route edges="west_luna_0 north_corrales_2" />
    </vehicle>
    <vehicle id="70_12" depart="219.29" type="smallTrucks">
        <route edges="north_osmena_0 north_osmena_1 west_florentino_0" />
    </vehicle>
    <vehicle id="70_13" depart="237.56" type="smallTrucks">
        <route edges="west_recto_0 west_recto_1 west_recto_2 south_osmena_3" />
    </vehicle>
    <vehicle id="70_14" depart="255.84" type="smallTrucks">
        <route edges="east_recto_0 east_recto_1 north_roa_0 north_roa_1" />
    </vehicle>
    <vehicle id="70_15" depart="274.11" type="smallTrucks">
        <route edges="east_recto_0 south_osmena_3" />
    </vehicle>
    <vehicle id="70_16" depart="292.39" type="smallTrucks">
        <route edges="east_recto_0 north_osmena_1 north_osmena_2 south_osmena_1 south_osmena_2 west_recto_3" />
    </vehicle>
    <vehicle id="70_17" depart="310.66" type="smallTrucks">
        <route edges="east_florentino_0 north_osmena_2 north_osmena_3" />
    </vehicle>
    <vehicle id="70_18" depart="328.93" type="smallTrucks">
        <route edges="south_corrales_0 south_corrales_1 west_recto_1 west_recto_2 south_osmena_3" />
    </vehicle>
    <vehicle id="70_19" depart="347.21" type="smallTrucks">
        <route edges="south_osmena_0 east_luna_0 north_roa_1" />
    </vehicle>
    <vehicle id="70_20" depart="365.48" type="smallTrucks">
        <route edges="south_roa_0 south_roa_1 west_recto_2 west_recto_3" />
    </vehicle>
    <vehicle id="70_21" depart="383.76" type="smallTrucks">
        <route edges="west_recto_0 west_recto_1 west_recto_2 north_osmena_1 north_osmena_2 north_osmena_3" />
    </vehicle>
    <vehicle id="70_22" depart="402.03" type="smallTrucks">
        <route edges="north_osmena_0 north_osmena_1 north_osmena_2 north_osmena_3" />
    </vehicle>
    <vehicle id="70_23" depart="420.30" type="smallTrucks">
        <route edges="west_recto_0 west_recto_1 west_recto_2 west_recto_3" />
    </vehicle>
    <vehicle id="70_24" depart="438.58" type="smallTrucks">
        <route edges="east_recto_0 north_osmena_1 west_florentino_0" />
    </vehicle>
    <vehicle id="70_25" depart="456.85" type="smallTrucks">
        <route edges="east_florentino_0 south_osmena_2 west_recto_3" />
    </vehicle>
    <vehicle id="70_26" depart="475.13" type="smallTrucks">
        <route edges="south_corrales_0 south_corrales_1 west_recto_1 west_recto_2 south_osmena_3" />
    </vehicle>
    <vehicle id="70_27" depart="493.40" type="smallTrucks">
        <route edges="north_osmena_0 north_osmena_1 north_osmena_2 south_osmena_1 south_osmena_2 south_osmena_3" />
    </vehicle>
    <vehicle id="70_28" depart="511.68" type="smallTrucks">
        <route edges="east_florentino_0 north_osmena_2 north_osmena_3" />
    </vehicle>
    <vehicle id="70_29" depart="529.95" type="smallTrucks">
        <route edges="west_recto_0 north_corrales_1 north_corrales_2" />
    </vehicle>
    <vehicle id="70_30" depart="548.22" type="smallTrucks">
        <route edges="east_florentino_0 south_osmena_2 east_recto_1 north_roa_0 west_luna_2" />
    </vehicle>
    <vehicle id="70_31" depart="566.50" type="smallTrucks">
        <route edges="west_recto_0 west_recto_1 west_recto_2 north_osmena_1 north_osmena_2 north_osmena_3" />
    </vehicle>
    <vehicle id="70_32" depart="584.77" type="smallTrucks">
        <route edges="west_recto_0 west_recto_1 west_recto_2 west_recto_3" />
    </vehicle>
    <vehicle id="70_33" depart="603.05" type="smallTrucks">
        <route edges="west_recto_0 west_recto_1 north_roa_0 north_roa_1" />
    </vehicle>
    <vehicle id="70_34" depart="621.32" type="smallTrucks">
        <route edges="east_florentino_0 north_osmena_2 north_osmena_3" />
    </vehicle>
    <vehicle id="70_35" depart="639.59" type="smallTrucks">
        <route edges="east_florentino_0 north_osmena_2 north_osmena_3" />
    </vehicle>
    <vehicle id="70_36" depart="657.87" type="smallTrucks">
        <route edges="east_florentino_0 north_osmena_2 north_osmena_3" />
    </vehicle>
    <vehicle id="70_37" depart="676.14" type="smallTrucks">
        <route edges="east_florentino_0 north_osmena_2 east_luna_0 north_roa_1" />
    </vehicle>
    <vehicle id="70_38" depart="694.42" type="smallTrucks">
        <route edges="east_recto_0 east_recto_1 north_roa_0 north_roa_1" />
    </vehicle>
    <vehicle id="70_39" depart="712.69" type="smallTrucks">
        <route edges="west_recto_0 west_recto_1 west_recto_2 north_osmena_1 north_osmena_2 north_osmena_3" />
    </vehicle>
    <vehicle id="70_40" depart="730.96" type="smallTrucks">
        <route edges="east_florentino_0 north_osmena_2 south_osmena_1 west_florentino_0" />
    </vehicle>
    <vehicle id="70_41" depart="749.24" type="smallTrucks">
        <route edges="south_osmena_0 south_osmena_1 south_osmena_2 south_osmena_3" />
    </vehicle>
    <vehicle id="70_42" depart="767.51" type="smallTrucks">
        <route edges="east_florentino_0 north_osmena_2 north_osmena_3" />
    </vehicle>
    <vehicle id="70_43" depart="785.79" type="smallTrucks">
        <route edges="north_osmena_0 north_osmena_1 north_osmena_2 north_osmena_3" />
    </vehicle>
    <vehicle id="70_44" depart="804.06" type="smallTrucks">
        <route edges="west_recto_0 south_corrales_2" />
    </vehicle>
    <vehicle id="70_45" depart="822.34" type="smallTrucks">
        <route edges="east_florentino_0 north_osmena_2 north_osmena_3" />
    </vehicle>
    <vehicle id="70_46" depart="840.61" type="smallTrucks">
        <route edges="north_osmena_0 north_osmena_1 north_osmena_2 north_osmena_3" />
    </vehicle>
    <vehicle id="70_47" depart="858.88" type="smallTrucks">
        <route edges="east_recto_0 north_osmena_1 north_osmena_2 south_osmena_1 south_osmena_2 west_recto_3" />
    </vehicle>
    <vehicle id="70_48" depart="877.16" type="smallTrucks">
        <route edges="east_recto_0 east_recto_1 north_roa_0 north_roa_1" />
    </vehicle>
    <vehicle id="70_49" depart="895.43" type="smallTrucks">
        <route edges="east_florentino_0 north_osmena_2 east_luna_0 north_roa_1" />
    </vehicle>
    <vehicle id="70_50" depart="913.71" type="smallTrucks">
        <route edges="east_florentino_0 north_osmena_2 north_osmena_3" />
    </vehicle>
    <vehicle id="70_51" depart="931.98" type="smallTrucks">
        <route edges="east_recto_0 south_osmena_3" />
    </vehicle>
    <vehicle id="70_52" depart="950.25" type="smallTrucks">
        <route edges="east_florentino_0 north_osmena_2 north_osmena_3" />
    </vehicle>
    <vehicle id="70_53" depart="968.53" type="smallTrucks">
        <route edges="east_florentino_0 north_osmena_2 north_osmena_3" />
    </vehicle>
    <vehicle id="70_54" depart="986.80" type="smallTrucks">
        <route edges="west_recto_0 west_recto_1 west_recto_2 north_osmena_1 west_florentino_0" />
    </vehicle>
    <vehicle id="70_55" depart="1005.08" type="smallTrucks">
        <route edges="east_recto_0 east_recto_1 east_recto_2 east_recto_3" />
    </vehicle>
    <vehicle id="70_56" depart="1023.35" type="smallTrucks">
        <route edges="south_osmena_0 east_luna_0 east_luna_1 east_luna_2" />
    </vehicle>
    <vehicle id="70_57" depart="1041.62" type="smallTrucks">
        <route edges="south_roa_0 south_roa_1 west_recto_2 south_osmena_3" />
    </vehicle>
    <vehicle id="70_58" depart="1059.90" type="smallTrucks">
        <route edges="west_recto_0 west_recto_1 west_recto_2 west_recto_3" />
    </vehicle>
    <vehicle id="70_59" depart="1078.17" type="smallTrucks">
        <route edges="south_corrales_0 west_luna_1 south_roa_1 east_recto_2 north_corrales_1 east_luna_2" />
    </vehicle>
    <vehicle id="70_60" depart="1096.45" type="smallTrucks">
        <route edges="east_florentino_0 south_osmena_2 east_recto_1 north_roa_0 west_luna_2" />
    </vehicle>
    <vehicle id="70_61" depart="1114.72" type="smallTrucks">
        <route edges="south_roa_0 south_roa_1 east_recto_2 east_recto_3" />
    </vehicle>
    <vehicle id="70_62" depart="1132.99" type="smallTrucks">
        <route edges="south_osmena_0 south_osmena_1 south_osmena_2 south_osmena_3" />
    </vehicle>
    <vehicle id="70_63" depart="1151.27" type="smallTrucks">
        <route edges="north_osmena_0 north_osmena_1 west_florentino_0" />
    </vehicle>
    <vehicle id="70_64" depart="1169.54" type="smallTrucks">
        <route edges="south_roa_0 south_roa_1 east_recto_2 east_recto_3" />
    </vehicle>
    <vehicle id="70_65" depart="1187.82" type="smallTrucks">
        <route edges="west_luna_0 west_luna_1 south_roa_1 east_recto_2 south_corrales_2" />
    </vehicle>
    <vehicle id="70_66" depart="1206.09" type="smallTrucks">
        <route edges="south_corrales_0 south_corrales_1 west_recto_1 west_recto_2 west_recto_3" />
    </vehicle>
    <vehicle id="70_67" depart="1224.37" type="smallTrucks">
        <route edges="south_osmena_0 east_luna_0 north_roa_1" />
    </vehicle>
    <vehicle id="70_68" depart="1242.64" type="smallTrucks">
        <route edges="west_recto_0 south_corrales_2" />
    </vehicle>
    <vehicle id="70_69" depart="1260.91" type="smallTrucks">
        <route edges="east_florentino_0 north_osmena_2 north_osmena_3" />
    </vehicle>
    <vehicle id="70_70" depart="1279.19" type="smallTrucks">
        <route edges="west_recto_0 west_recto_1 north_roa_0 north_roa_1" />
    </vehicle>
    <vehicle id="70_71" depart="1297.46" type="smallTrucks">
        <route edges="east_recto_0 east_recto_1 north_roa_0 north_roa_1" />
    </vehicle>
    <vehicle id="70_72" depart="1315.74" type="smallTrucks">
        <route edges="west_luna_0 north_corrales_2" />
    </vehicle>
    <vehicle id="70_73" depart="1334.01" type="smallTrucks">
        <route edges="north_corrales_0 north_corrales_1 north_corrales_2" />
    </vehicle>
    <vehicle id="70_74" depart="1352.28" type="smallTrucks">
        <route edges="south_roa_0 east_luna_1 east_luna_2" />
    </vehicle>
    <vehicle id="70_75" depart="1370.56" type="smallTrucks">
        <route edges="south_corrales_0 west_luna_1 west_luna_2 north_osmena_3" />
    </vehicle>
    <vehicle id="70_76" depart="1388.83" type="smallTrucks">
        <route edges="east_florentino_0 north_osmena_2 north_osmena_3" />
    </vehicle>
    <vehicle id="70_77" depart="1407.11" type="smallTrucks">
        <route edges="north_corrales_0 east_recto_3" />
    </vehicle>
    <vehicle id="70_78" depart="1425.38" type="smallTrucks">
        <route edges="east_florentino_0 north_osmena_2 north_osmena_3" />
    </vehicle>
    <vehicle id="70_79" depart="1443.65" type="smallTrucks">
        <route edges="south_osmena_0 south_osmena_1 south_osmena_2 south_osmena_3" />
    </vehicle>
    <vehicle id="70_80" depart="1461.93" type="smallTrucks">
        <route edges="east_florentino_0 north_osmena_2 north_osmena_3" />
    </vehicle>
    <vehicle id="70_81" depart="1480.20" type="smallTrucks">
        <route edges="west_recto_0 west_recto_1 west_recto_2 west_recto_3" />
    </vehicle>
    <vehicle id="70_82" depart="1498.48" type="smallTrucks">
        <route edges="south_roa_0 south_roa_1 east_recto_2 east_recto_3" />
    </vehicle>
    <vehicle id="70_83" depart="1516.75" type="smallTrucks">
        <route edges="east_florentino_0 north_osmena_2 north_osmena_3" />
    </vehicle>
    <vehicle id="70_84" depart="1535.03" type="smallTrucks">
        <route edges="south_osmena_0 south_osmena_1 west_florentino_0" />
    </vehicle>
    <vehicle id="70_85" depart="1553.30" type="smallTrucks">
        <route edges="west_luna_0 north_corrales_2" />
    </vehicle>
    <vehicle id="70_86" depart="1571.57" type="smallTrucks">
        <route edges="west_luna_0 north_corrales_2" />
    </vehicle>
    <vehicle id="70_87" depart="1589.85" type="smallTrucks">
        <route edges="west_recto_0 west_recto_1 west_recto_2 north_osmena_1 west_florentino_0" />
    </vehicle>
    <vehicle id="70_88" depart="1608.12" type="smallTrucks">
        <route edges="west_recto_1 north_roa_0 east_luna_1 east_luna_2" />
    </vehicle>
    <vehicle id="70_89" depart="1626.40" type="smallTrucks">
        <route edges="east_recto_0 north_osmena_1 north_osmena_2 south_osmena_1 south_osmena_2 west_recto_3" />
    </vehicle>
    <vehicle id="70_90" depart="1644.67" type="smallTrucks">
        <route edges="east_florentino_0 north_osmena_2 east_luna_0 north_roa_1" />
    </vehicle>
    <vehicle id="70_91" depart="1662.94" type="smallTrucks">
        <route edges="north_osmena_0 north_osmena_1 north_osmena_2 south_osmena_1 south_osmena_2 south_osmena_3" />
    </vehicle>
    <vehicle id="70_92" depart="1681.22" type="smallTrucks">
        <route edges="west_recto_0 west_recto_1 west_recto_2 north_osmena_1 west_florentino_0" />
    </vehicle>
    <vehicle id="70_93" depart="1699.49" type="smallTrucks">
        <route edges="east_florentino_0 north_osmena_2 east_luna_0 north_roa_1" />
    </vehicle>
    <vehicle id="70_94" depart="1717.77" type="smallTrucks">
        <route edges="north_corrales_0 north_corrales_1 north_corrales_2" />
    </vehicle>
    <vehicle id="70_95" depart="1736.04" type="smallTrucks">
        <route edges="west_luna_0 north_corrales_2" />
    </vehicle>
    <vehicle id="70_96" depart="1754.31" type="smallTrucks">
        <route edges="east_recto_0 east_recto_1 north_roa_0 north_roa_1" />
    </vehicle>
    <vehicle id="70_97" depart="1772.59" type="smallTrucks">
        <route edges="east_florentino_0 north_osmena_2 north_osmena_3" />
    </vehicle>
    <vehicle id="70_98" depart="1790.86" type="smallTrucks">
        <route edges="east_recto_0 east_recto_1 east_recto_2 east_recto_3" />
    </vehicle>
    <vehicle id="70_99" depart="1809.14" type="smallTrucks">
        <route edges="east_florentino_0 north_osmena_2 north_osmena_3" />
    </vehicle>
    <vehicle id="70_100" depart="1827.41" type="smallTrucks">
        <route edges="north_osmena_0 east_recto_1 east_recto_2 east_recto_3" />
    </vehicle>
    <vehicle id="70_101" depart="1845.69" type="smallTrucks">
        <route edges="north_corrales_0 east_recto_3" />
    </vehicle>
    <vehicle id="70_102" depart="1863.96" type="smallTrucks">
        <route edges="north_osmena_0 west_recto_3" />
    </vehicle>
    <vehicle id="70_103" depart="1882.23" type="smallTrucks">
        <route edges="west_recto_0 west_recto_1 west_recto_2 west_recto_3" />
    </vehicle>
    <vehicle id="70_104" depart="1900.51" type="smallTrucks">
        <route edges="north_osmena_0 north_osmena_1 north_osmena_2 south_osmena_1 south_osmena_2 south_osmena_3" />
    </vehicle>
    <vehicle id="70_105" depart="1918.78" type="smallTrucks">
        <route edges="east_florentino_0 north_osmena_2 north_osmena_3" />
    </vehicle>
    <vehicle id="70_106" depart="1937.06" type="smallTrucks">
        <route edges="east_florentino_0 north_osmena_2 north_osmena_3" />
    </vehicle>
    <vehicle id="70_107" depart="1955.33" type="smallTrucks">
        <route edges="west_recto_0 west_recto_1 west_recto_2 south_osmena_3" />
    </vehicle>
    <vehicle id="70_108" depart="1973.60" type="smallTrucks">
        <route edges="south_roa_0 west_luna_2 north_osmena_3" />
    </vehicle>
    <vehicle id="70_109" depart="1991.88" type="smallTrucks">
        <route edges="south_roa_0 south_roa_1 west_recto_2 west_recto_3" />
    </vehicle>
    <vehicle id="70_110" depart="2010.15" type="smallTrucks">
        <route edges="south_osmena_0 south_osmena_1 west_florentino_0" />
    </vehicle>
    <vehicle id="70_111" depart="2028.43" type="smallTrucks">
        <route edges="east_florentino_0 south_osmena_2 east_recto_1 east_recto_2 north_corrales_1 north_corrales_2" />
    </vehicle>
    <vehicle id="70_112" depart="2046.70" type="smallTrucks">
        <route edges="east_florentino_0 north_osmena_2 north_osmena_3" />
    </vehicle>
    <vehicle id="70_113" depart="2064.97" type="smallTrucks">
        <route edges="east_recto_0 east_recto_1 north_roa_0 north_roa_1" />
    </vehicle>
    <vehicle id="70_114" depart="2083.25" type="smallTrucks">
        <route edges="east_florentino_0 north_osmena_2 north_osmena_3" />
    </vehicle>
    <vehicle id="70_115" depart="2101.52" type="smallTrucks">
        <route edges="south_corrales_0 south_corrales_1 south_corrales_2" />
    </vehicle>
    <vehicle id="70_116" depart="2119.80" type="smallTrucks">
        <route edges="south_corrales_0 south_corrales_1 south_corrales_2" />
    </vehicle>
    <vehicle id="70_117" depart="2138.07" type="smallTrucks">
        <route edges="west_luna_0 west_luna_1 south_roa_1 east_recto_2 east_recto_3" />
    </vehicle>
    <vehicle id="70_118" depart="2156.35" type="smallTrucks">
        <route edges="south_osmena_0 south_osmena_1 south_osmena_2 south_osmena_3" />
    </vehicle>
    <vehicle id="70_119" depart="2174.62" type="smallTrucks">
        <route edges="north_osmena_0 north_osmena_1 west_florentino_0" />
    </vehicle>
    <vehicle id="70_120" depart="2192.89" type="smallTrucks">
        <route edges="west_recto_0 west_recto_1 west_recto_2 west_recto_3" />
    </vehicle>
    <vehicle id="70_121" depart="2211.17" type="smallTrucks">
        <route edges="south_roa_0 south_roa_1 west_recto_2 south_osmena_3" />
    </vehicle>
    <vehicle id="70_122" depart="2229.44" type="smallTrucks">
        <route edges="south_corrales_0 west_luna_1 west_luna_2 south_osmena_1 west_florentino_0" />
    </vehicle>
    <vehicle id="70_123" depart="2247.72" type="smallTrucks">
        <route edges="west_recto_0 west_recto_1 west_recto_2 north_osmena_1 north_osmena_2 south_osmena_1 south_osmena_2 east_recto_1 east_recto_2 east_recto_3" />
    </vehicle>
    <vehicle id="70_124" depart="2265.99" type="smallTrucks">
        <route edges="south_roa_0 west_luna_2 north_osmena_3" />
    </vehicle>
    <vehicle id="70_125" depart="2284.26" type="smallTrucks">
        <route edges="west_luna_0 west_luna_1 west_luna_2 south_osmena_1 west_florentino_0" />
    </vehicle>
    <vehicle id="70_126" depart="2302.54" type="smallTrucks">
        <route edges="west_recto_0 west_recto_1 west_recto_2 north_osmena_1 north_osmena_2 south_osmena_1 south_osmena_2 east_recto_1 east_recto_2 east_recto_3" />
    </vehicle>
    <vehicle id="70_127" depart="2320.81" type="smallTrucks">
        <route edges="west_luna_0 west_luna_1 north_roa_1" />
    </vehicle>
    <vehicle id="70_128" depart="2339.09" type="smallTrucks">
        <route edges="east_florentino_0 north_osmena_2 north_osmena_3" />
    </vehicle>
    <vehicle id="70_129" depart="2357.36" type="smallTrucks">
        <route edges="east_recto_0 south_osmena_3" />
    </vehicle>
    <vehicle id="70_130" depart="2375.63" type="smallTrucks">
        <route edges="south_roa_0 south_roa_1 east_recto_2 east_recto_3" />
    </vehicle>
    <vehicle id="70_131" depart="2393.91" type="smallTrucks">
        <route edges="west_recto_0 west_recto_1 west_recto_2 north_osmena_1 north_osmena_2 south_osmena_1 south_osmena_2 east_recto_1 east_recto_2 east_recto_3" />
    </vehicle>
    <vehicle id="70_132" depart="2412.18" type="smallTrucks">
        <route edges="south_roa_0 south_roa_1 west_recto_2 south_osmena_3" />
    </vehicle>
    <vehicle id="70_133" depart="2430.46" type="smallTrucks">
        <route edges="west_luna_0 west_luna_1 west_luna_2 south_osmena_1 west_florentino_0" />
    </vehicle>
    <vehicle id="70_134" depart="2448.73" type="smallTrucks">
        <route edges="east_florentino_0 north_osmena_2 east_luna_0 north_roa_1" />
    </vehicle>
    <vehicle id="70_135" depart="2467.01" type="smallTrucks">
        <route edges="east_recto_0 east_recto_1 north_roa_0 north_roa_1" />
    </vehicle>
    <vehicle id="70_136" depart="2485.28" type="smallTrucks">
        <route edges="east_florentino_0 north_osmena_2 north_osmena_3" />
    </vehicle>
    <vehicle id="70_137" depart="2503.55" type="smallTrucks">
        <route edges="west_recto_0 north_corrales_1 north_corrales_2" />
    </vehicle>
    <vehicle id="70_138" depart="2521.83" type="smallTrucks">
        <route edges="north_osmena_0 west_recto_3" />
    </vehicle>
    <vehicle id="70_139" depart="2540.10" type="smallTrucks">
        <route edges="south_corrales_0 south_corrales_1 east_recto_3" />
    </vehicle>
    <vehicle id="70_140" depart="2558.38" type="smallTrucks">
        <route edges="south_osmena_0 south_osmena_1 south_osmena_2 east_recto_1 east_recto_2 east_recto_3" />
    </vehicle>
    <vehicle id="70_141" depart="2576.65" type="smallTrucks">
        <route edges="south_osmena_0 south_osmena_1 south_osmena_2 south_osmena_3" />
    </vehicle>
    <vehicle id="70_142" depart="2594.92" type="smallTrucks">
        <route edges="north_osmena_0 north_osmena_1 north_osmena_2 north_osmena_3" />
    </vehicle>
    <vehicle id="70_143" depart="2613.20" type="smallTrucks">
        <route edges="east_recto_0 east_recto_1 north_roa_0 north_roa_1" />
    </vehicle>
    <vehicle id="70_144" depart="2631.47" type="smallTrucks">
        <route edges="south_osmena_0 south_osmena_1 south_osmena_2 south_osmena_3" />
    </vehicle>
    <vehicle id="70_145" depart="2649.75" type="smallTrucks">
        <route edges="south_osmena_0 south_osmena_1 west_florentino_0" />
    </vehicle>
    <vehicle id="70_146" depart="2668.02" type="smallTrucks">
        <route edges="east_florentino_0 north_osmena_2 east_luna_0 north_roa_1" />
    </vehicle>
    <vehicle id="70_147" depart="2686.29" type="smallTrucks">
        <route edges="south_roa_0 south_roa_1 east_recto_2 east_recto_3" />
    </vehicle>
    <vehicle id="70_148" depart="2704.57" type="smallTrucks">
        <route edges="north_corrales_0 north_corrales_1 north_corrales_2" />
    </vehicle>
    <vehicle id="70_149" depart="2722.84" type="smallTrucks">
        <route edges="east_florentino_0 north_osmena_2 north_osmena_3" />
    </vehicle>
    <vehicle id="70_150" depart="2741.12" type="smallTrucks">
        <route edges="east_florentino_0 north_osmena_2 north_osmena_3" />
    </vehicle>
    <vehicle id="70_151" depart="2759.39" type="smallTrucks">
        <route edges="east_florentino_0 north_osmena_2 north_osmena_3" />
    </vehicle>
    <vehicle id="70_152" depart="2777.66" type="smallTrucks">
        <route edges="north_osmena_0 east_recto_1 north_roa_0 north_roa_1" />
    </vehicle>
    <vehicle id="70_153" depart="2795.94" type="smallTrucks">
        <route edges="north_osmena_0 north_osmena_1 north_osmena_2 north_osmena_3" />
    </vehicle>
    <vehicle id="70_154" depart="2814.21" type="smallTrucks">
        <route edges="south_roa_0 south_roa_1 west_recto_2 west_recto_3" />
    </vehicle>
    <vehicle id="70_155" depart="2832.49" type="smallTrucks">
        <route edges="north_corrales_0 north_corrales_1 north_corrales_2" />
    </vehicle>
    <vehicle id="70_156" depart="2850.76" type="smallTrucks">
        <route edges="east_florentino_0 north_osmena_2 north_osmena_3" />
    </vehicle>
    <vehicle id="70_157" depart="2869.04" type="smallTrucks">
        <route edges="east_recto_0 east_recto_1 east_recto_2 east_recto_3" />
    </vehicle>
    <vehicle id="70_158" depart="2887.31" type="smallTrucks">
        <route edges="east_recto_0 north_osmena_1 west_florentino_0" />
    </vehicle>
    <vehicle id="70_159" depart="2905.58" type="smallTrucks">
        <route edges="south_osmena_0 south_osmena_1 south_osmena_2 south_osmena_3" />
    </vehicle>
    <vehicle id="70_160" depart="2923.86" type="smallTrucks">
        <route edges="west_recto_0 west_recto_1 west_recto_2 south_osmena_3" />
    </vehicle>
    <vehicle id="70_161" depart="2942.13" type="smallTrucks">
        <route edges="east_florentino_0 north_osmena_2 south_osmena_1 west_florentino_0" />
    </vehicle>
    <vehicle id="70_162" depart="2960.41" type="smallTrucks">
        <route edges="east_florentino_0 north_osmena_2 east_luna_0 north_roa_1" />
    </vehicle>
    <vehicle id="70_163" depart="2978.68" type="smallTrucks">
        <route edges="east_florentino_0 north_osmena_2 north_osmena_3" />
    </vehicle>
    <vehicle id="70_164" depart="2996.95" type="smallTrucks">
        <route edges="east_florentino_0 north_osmena_2 north_osmena_3" />
    </vehicle>
    <vehicle id="70_165" depart="3015.23" type="smallTrucks">
        <route edges="south_roa_0 south_roa_1 west_recto_2 west_recto_3" />
    </vehicle>
    <vehicle id="70_166" depart="3033.50" type="smallTrucks">
        <route edges="south_roa_0 south_roa_1 east_recto_2 east_recto_3" />
    </vehicle>
    <vehicle id="70_167" depart="3051.78" type="smallTrucks">
        <route edges="east_florentino_0 north_osmena_2 north_osmena_3" />
    </vehicle>
    <vehicle id="70_168" depart="3070.05" type="smallTrucks">
        <route edges="east_florentino_0 north_osmena_2 east_luna_0 north_roa_1" />
    </vehicle>
    <vehicle id="70_169" depart="3088.32" type="smallTrucks">
        <route edges="east_florentino_0 north_osmena_2 north_osmena_3" />
    </vehicle>
    <vehicle id="70_170" depart="3106.60" type="smallTrucks">
        <route edges="west_recto_0 west_recto_1 west_recto_2 north_osmena_1 north_osmena_2 north_osmena_3" />
    </vehicle>
    <vehicle id="70_171" depart="3124.87" type="smallTrucks">
        <route edges="south_corrales_0 south_corrales_1 south_corrales_2" />
    </vehicle>
    <vehicle id="70_172" depart="3143.15" type="smallTrucks">
        <route edges="east_florentino_0 north_osmena_2 north_osmena_3" />
    </vehicle>
    <vehicle id="70_173" depart="3161.42" type="smallTrucks">
        <route edges="south_osmena_0 south_osmena_1 south_osmena_2 south_osmena_3" />
    </vehicle>
    <vehicle id="70_174" depart="3179.70" type="smallTrucks">
        <route edges="south_roa_0 south_roa_1 west_recto_2 south_osmena_3" />
    </vehicle>
    <vehicle id="70_175" depart="3197.97" type="smallTrucks">
        <route edges="north_corrales_0 north_corrales_1 north_corrales_2" />
    </vehicle>
    <vehicle id="70_176" depart="3216.24" type="smallTrucks">
        <route edges="north_osmena_0 north_osmena_1 north_osmena_2 south_osmena_1 south_osmena_2 south_osmena_3" />
    </vehicle>
    <vehicle id="70_177" depart="3234.52" type="smallTrucks">
        <route edges="south_osmena_0 south_osmena_1 west_florentino_0" />
    </vehicle>
    <vehicle id="70_178" depart="3252.79" type="smallTrucks">
        <route edges="east_recto_0 east_recto_1 north_roa_0 north_roa_1" />
    </vehicle>
    <vehicle id="70_179" depart="3271.07" type="smallTrucks">
        <route edges="east_florentino_0 north_osmena_2 north_osmena_3" />
    </vehicle>
    <vehicle id="70_180" depart="3289.34" type="smallTrucks">
        <route edges="north_corrales_0 north_corrales_1 north_corrales_2" />
    </vehicle>
    <vehicle id="70_181" depart="3307.61" type="smallTrucks">
        <route edges="east_florentino_0 north_osmena_2 north_osmena_3" />
    </vehicle>
    <vehicle id="70_182" depart="3325.89" type="smallTrucks">
        <route edges="south_osmena_0 east_luna_0 east_luna_1 east_luna_2" />
    </vehicle>
    <vehicle id="70_183" depart="3344.16" type="smallTrucks">
        <route edges="east_florentino_0 north_osmena_2 east_luna_0 north_roa_1" />
    </vehicle>
    <vehicle id="70_184" depart="3362.44" type="smallTrucks">
        <route edges="west_recto_0 west_recto_1 west_recto_2 north_osmena_1 north_osmena_2 south_osmena_1 south_osmena_2 east_recto_1 east_recto_2 east_recto_3" />
    </vehicle>
    <vehicle id="70_185" depart="3380.71" type="smallTrucks">
        <route edges="south_roa_0 south_roa_1 east_recto_2 east_recto_3" />
    </vehicle>
    <vehicle id="70_186" depart="3398.98" type="smallTrucks">
        <route edges="south_osmena_0 east_luna_0 north_roa_1" />
    </vehicle>
    <vehicle id="70_187" depart="3417.26" type="smallTrucks">
        <route edges="south_osmena_0 south_osmena_1 west_florentino_0" />
    </vehicle>
    <vehicle id="70_188" depart="3435.53" type="smallTrucks">
        <route edges="south_corrales_0 south_corrales_1 east_recto_3" />
    </vehicle>