<routes xmlns:xsi="http://www.w3.org/2001/XMLSchema-instance" xsi:noNamespaceSchemaLocation="http://sumo.dlr.de/xsd/routes_file.xsd">
<vType id="taxi" accel="1.0" decel="4.5" sigma="0.5" length="2.0" minGap="0.5" maxSpeed="30.0" guiShape="bicycle" color="255,0,0" />
    <vehicle id="90_0" depart="0.00" type="taxi">
        <route edges="west_recto_0 south_corrales_2" />
    </vehicle>
    <vehicle id="90_1" depart="7.27" type="taxi">
        <route edges="west_luna_0 west_luna_1 north_roa_1" />
    </vehicle>
    <vehicle id="90_2" depart="14.55" type="taxi">
        <route edges="north_corrales_0 north_corrales_1 north_corrales_2" />
    </vehicle>
    <vehicle id="90_3" depart="21.82" type="taxi">
        <route edges="north_corrales_0 north_corrales_1 north_corrales_2" />
    </vehicle>
    <vehicle id="90_4" depart="29.09" type="taxi">
        <route edges="west_recto_0 west_recto_1 west_recto_2 south_osmena_3" />
    </vehicle>
    <vehicle id="90_5" depart="36.36" type="taxi">
        <route edges="north_corrales_0 north_corrales_1 north_corrales_2" />
    </vehicle>
    <vehicle id="90_6" depart="43.64" type="taxi">
        <route edges="west_recto_0 west_recto_1 west_recto_2 south_osmena_3" />
    </vehicle>
    <vehicle id="90_7" depart="50.91" type="taxi">
        <route edges="east_recto_0 north_osmena_1 north_osmena_2 north_osmena_3" />
    </vehicle>
    <vehicle id="90_8" depart="58.18" type="taxi">
        <route edges="north_corrales_0 east_recto_3" />
    </vehicle>
    <vehicle id="90_9" depart="65.45" type="taxi">
        <route edges="south_osmena_0 south_osmena_1 west_florentino_0" />
    </vehicle>
    <vehicle id="90_10" depart="72.73" type="taxi">
        <route edges="west_recto_0 west_recto_1 west_recto_2 north_osmena_1 north_osmena_2 north_osmena_3" />
    </vehicle>
    <vehicle id="90_11" depart="80.00" type="taxi">
        <route edges="east_florentino_0 north_osmena_2 south_osmena_1 west_florentino_0" />
    </vehicle>
    <vehicle id="90_12" depart="87.27" type="taxi">
        <route edges="west_recto_0 west_recto_1 west_recto_2 west_recto_3" />
    </vehicle>
    <vehicle id="90_13" depart="94.55" type="taxi">
        <route edges="east_florentino_0 north_osmena_2 north_osmena_3" />
    </vehicle>
    <vehicle id="90_14" depart="101.82" type="taxi">
        <route edges="south_osmena_0 east_luna_0 east_luna_1 east_luna_2" />
    </vehicle>
    <vehicle id="90_15" depart="109.09" type="taxi">
        <route edges="west_luna_0 west_luna_1 south_roa_1 east_recto_2 east_recto_3" />
    </vehicle>
    <vehicle id="90_16" depart="116.36" type="taxi">
        <route edges="south_corrales_0 south_corrales_1 south_corrales_2" />
    </vehicle>
    <vehicle id="90_17" depart="123.64" type="taxi">
        <route edges="south_corrales_0 south_corrales_1 south_corrales_2" />
    </vehicle>
    <vehicle id="90_18" depart="130.91" type="taxi">
        <route edges="south_corrales_0 south_corrales_1 south_corrales_2" />
    </vehicle>
    <vehicle id="90_19" depart="138.18" type="taxi">
        <route edges="east_recto_0 east_recto_1 east_recto_2 east_recto_3" />
    </vehicle>
    <vehicle id="90_20" depart="145.45" type="taxi">
        <route edges="south_roa_0 east_luna_1 east_luna_2" />
    </vehicle>
    <vehicle id="90_21" depart="152.73" type="taxi">
        <route edges="south_osmena_0 south_osmena_1 south_osmena_2 east_recto_1 east_recto_2 north_corrales_1 north_corrales_2" />
    </vehicle>
    <vehicle id="90_22" depart="160.00" type="taxi">
        <route edges="west_recto_0 south_corrales_2" />
    </vehicle>
    <vehicle id="90_23" depart="167.27" type="taxi">
        <route edges="west_luna_0 west_luna_1 north_roa_1" />
    </vehicle>
    <vehicle id="90_24" depart="174.55" type="taxi">
        <route edges="north_corrales_0 east_recto_3" />
    </vehicle>
    <vehicle id="90_25" depart="181.82" type="taxi">
        <route edges="west_recto_0 north_corrales_1 north_corrales_2" />
    </vehicle>
    <vehicle id="90_26" depart="189.09" type="taxi">
        <route edges="west_recto_0 south_corrales_2" />
    </vehicle>
    <vehicle id="90_27" depart="196.36" type="taxi">
        <route edges="west_recto_0 south_corrales_2" />
    </vehicle>
    <vehicle id="90_28" depart="203.64" type="taxi">
        <route edges="east_recto_0 east_recto_1 east_recto_2 east_recto_3" />
    </vehicle>
    <vehicle id="90_29" depart="210.91" type="taxi">
        <route edges="north_osmena_0 north_osmena_1 north_osmena_2 north_osmena_3" />
    </vehicle>
    <vehicle id="90_30" depart="218.18" type="taxi">
        <route edges="west_recto_0 west_recto_1 west_recto_2 south_osmena_3" />
    </vehicle>
    <vehicle id="90_31" depart="225.45" type="taxi">
        <route edges="east_recto_0 east_recto_1 east_recto_2 east_recto_3" />
    </vehicle>
    <vehicle id="90_32" depart="232.73" type="taxi">
        <route edges="south_osmena_0 south_osmena_1 west_florentino_0" />
    </vehicle>
    <vehicle id="90_33" depart="240.00" type="taxi">
        <route edges="east_florentino_0 north_osmena_2 north_osmena_3" />
    </vehicle>
    <vehicle id="90_34" depart="247.27" type="taxi">
        <route edges="south_corrales_0 south_corrales_1 east_recto_3" />
    </vehicle>
    <vehicle id="90_35" depart="254.55" type="taxi">
        <route edges="west_luna_0 west_luna_1 west_luna_2 north_osmena_3" />
    </vehicle>
    <vehicle id="90_36" depart="261.82" type="taxi">
        <route edges="west_recto_0 west_recto_1 north_roa_0 north_roa_1" />
    </vehicle>
    <vehicle id="90_37" depart="269.09" type="taxi">
        <route edges="north_corrales_0 north_corrales_1 east_luna_2" />
    </vehicle>
    <vehicle id="90_38" depart="276.36" type="taxi">
        <route edges="south_corrales_0 south_corrales_1 west_recto_1 west_recto_2 south_osmena_3" />
    </vehicle>
    <vehicle id="90_39" depart="283.64" type="taxi">
        <route edges="east_florentino_0 north_osmena_2 north_osmena_3" />
    </vehicle>
    <vehicle id="90_40" depart="290.91" type="taxi">
        <route edges="south_corrales_0 south_corrales_1 south_corrales_2" />
    </vehicle>
    <vehicle id="90_41" depart="298.18" type="taxi">
        <route edges="west_recto_0 north_corrales_1 north_corrales_2" />
    </vehicle>
    <vehicle id="90_42" depart="305.45" type="taxi">
        <route edges="south_osmena_0 south_osmena_1 south_osmena_2 east_recto_1 east_recto_2 north_corrales_1 north_corrales_2" />
    </vehicle>
    <vehicle id="90_43" depart="312.73" type="taxi">
        <route edges="east_florentino_0 north_osmena_2 north_osmena_3" />
    </vehicle>
    <vehicle id="90_44" depart="320.00" type="taxi">
        <route edges="east_florentino_0 south_osmena_2 east_recto_1 east_recto_2 north_corrales_1 north_corrales_2" />
    </vehicle>
    <vehicle id="90_45" depart="327.27" type="taxi">
        <route edges="south_roa_0 south_roa_1 east_recto_2 east_recto_3" />
    </vehicle>
    <vehicle id="90_46" depart="334.55" type="taxi">
        <route edges="south_corrales_0 south_corrales_1 west_recto_1 west_recto_2 south_osmena_3" />
    </vehicle>
    <vehicle id="90_47" depart="341.82" type="taxi">
        <route edges="west_recto_0 west_recto_1 west_recto_2 north_osmena_1 north_osmena_2 north_osmena_3" />
    </vehicle>
    <vehicle id="90_48" depart="349.09" type="taxi">
        <route edges="east_florentino_0 south_osmena_2 east_recto_1 north_roa_0 west_luna_2" />
    </vehicle>
    <vehicle id="90_49" depart="356.36" type="taxi">
        <route edges="south_corrales_0 west_luna_1 south_roa_1 east_recto_2 north_corrales_1 north_corrales_2" />
    </vehicle>
    <vehicle id="90_50" depart="363.64" type="taxi">
        <route edges="west_recto_0 south_corrales_2" />
    </vehicle>
    <vehicle id="90_51" depart="370.91" type="taxi">
        <route edges="south_corrales_0 south_corrales_1 west_recto_1 west_recto_2 west_recto_3" />
    </vehicle>
    <vehicle id="90_52" depart="378.18" type="taxi">
        <route edges="east_florentino_0 north_osmena_2 north_osmena_3" />
    </vehicle>
    <vehicle id="90_53" depart="385.45" type="taxi">
        <route edges="south_roa_0 south_roa_1 east_recto_2 east_recto_3" />
    </vehicle>
    <vehicle id="90_54" depart="392.73" type="taxi">
        <route edges="west_recto_0 north_corrales_1 east_luna_2" />
    </vehicle>
    <vehicle id="90_55" depart="400.00" type="taxi">
        <route edges="west_recto_0 north_corrales_1 north_corrales_2" />
    </vehicle>
    <vehicle id="90_56" depart="407.27" type="taxi">
        <route edges="north_corrales_0 north_corrales_1 north_corrales_2" />
    </vehicle>
    <vehicle id="90_57" depart="414.55" type="taxi">
        <route edges="west_luna_0 west_luna_1 west_luna_2 south_osmena_1 west_florentino_0" />
    </vehicle>
    <vehicle id="90_58" depart="421.82" type="taxi">
        <route edges="east_recto_0 east_recto_1 north_roa_0 north_roa_1" />
    </vehicle>
    <vehicle id="90_59" depart="429.09" type="taxi">
        <route edges="north_osmena_0 north_osmena_1 north_osmena_2 north_osmena_3" />
    </vehicle>
    <vehicle id="90_60" depart="436.36" type="taxi">
        <route edges="west_recto_0 west_recto_1 west_recto_2 south_osmena_3" />
    </vehicle>
    <vehicle id="90_61" depart="443.64" type="taxi">
        <route edges="north_osmena_0 north_osmena_1 north_osmena_2 north_osmena_3" />
    </vehicle>
    <vehicle id="90_62" depart="450.91" type="taxi">
        <route edges="north_corrales_0 west_recto_1 west_recto_2 north_osmena_1 west_florentino_0" />
    </vehicle>
    <vehicle id="90_63" depart="458.18" type="taxi">
        <route edges="east_recto_0 north_osmena_1 west_florentino_0" />
    </vehicle>
    <vehicle id="90_64" depart="465.45" type="taxi">
        <route edges="west_recto_0 west_recto_1 west_recto_2 south_osmena_3" />
    </vehicle>
    <vehicle id="90_65" depart="472.73" type="taxi">
        <route edges="north_osmena_0 north_osmena_1 north_osmena_2 south_osmena_1 south_osmena_2 south_osmena_3" />
    </vehicle>
    <vehicle id="90_66" depart="480.00" type="taxi">
        <route edges="east_recto_0 east_recto_1 east_recto_2 east_recto_3" />
    </vehicle>
    <vehicle id="90_67" depart="487.27" type="taxi">
        <route edges="east_recto_0 north_osmena_1 west_florentino_0" />
    </vehicle>
    <vehicle id="90_68" depart="494.55" type="taxi">
        <route edges="south_osmena_0 south_osmena_1 south_osmena_2 south_osmena_3" />
    </vehicle>
    <vehicle id="90_69" depart="501.82" type="taxi">
        <route edges="east_recto_0 east_recto_1 east_recto_2 east_recto_3" />
    </vehicle>
    <vehicle id="90_70" depart="509.09" type="taxi">
        <route edges="west_recto_0 north_corrales_1 north_corrales_2" />
    </vehicle>
    <vehicle id="90_71" depart="516.36" type="taxi">
        <route edges="north_osmena_0 north_osmena_1 north_osmena_2 north_osmena_3" />
    </vehicle>
    <vehicle id="90_72" depart="523.64" type="taxi">
        <route edges="south_corrales_0 south_corrales_1 east_recto_3" />
    </vehicle>
    <vehicle id="90_73" depart="530.91" type="taxi">
        <route edges="south_corrales_0 south_corrales_1 south_corrales_2" />
    </vehicle>
    <vehicle id="90_74" depart="538.18" type="taxi">
        <route edges="south_corrales_0 west_luna_1 south_roa_1 east_recto_2 north_corrales_1 east_luna_2" />
    </vehicle>
    <vehicle id="90_75" depart="545.45" type="taxi">
        <route edges="south_corrales_0 west_luna_1 west_luna_2 north_osmena_3" />
    </vehicle>
    <vehicle id="90_76" depart="552.73" type="taxi">
        <route edges="east_recto_0 east_recto_1 east_recto_2 east_recto_3" />
    </vehicle>
    <vehicle id="90_77" depart="560.00" type="taxi">
        <route edges="west_recto_0 west_recto_1 north_roa_0 north_roa_1" />
    </vehicle>
    <vehicle id="90_78" depart="567.27" type="taxi">
        <route edges="east_florentino_0 south_osmena_2 west_recto_3" />
    </vehicle>
    <vehicle id="90_79" depart="574.55" type="taxi">
        <route edges="south_corrales_0 south_corrales_1 east_recto_3" />
    </vehicle>
    <vehicle id="90_80" depart="581.82" type="taxi">
        <route edges="south_corrales_0 south_corrales_1 south_corrales_2" />
    </vehicle>
    <vehicle id="90_81" depart="589.09" type="taxi">
        <route edges="west_recto_0 west_recto_1 west_recto_2 south_osmena_3" />
    </vehicle>
    <vehicle id="90_82" depart="596.36" type="taxi">
        <route edges="east_recto_0 east_recto_1 east_recto_2 east_recto_3" />
    </vehicle>
    <vehicle id="90_83" depart="603.64" type="taxi">
        <route edges="south_roa_0 west_luna_2 north_osmena_3" />
    </vehicle>
    <vehicle id="90_84" depart="610.91" type="taxi">
        <route edges="east_florentino_0 north_osmena_2 north_osmena_3" />
    </vehicle>
    <vehicle id="90_85" depart="618.18" type="taxi">
        <route edges="west_recto_0 south_corrales_2" />
    </vehicle>
    <vehicle id="90_86" depart="625.45" type="taxi">
        <route edges="south_roa_0 south_roa_1 east_recto_2 south_corrales_2" />
    </vehicle>
    <vehicle id="90_87" depart="632.73" type="taxi">
        <route edges="west_recto_0 west_recto_1 west_recto_2 west_recto_3" />
    </vehicle>
    <vehicle id="90_88" depart="640.00" type="taxi">
        <route edges="east_florentino_0 north_osmena_2 north_osmena_3" />
    </vehicle>
    <vehicle id="90_89" depart="647.27" type="taxi">
        <route edges="east_florentino_0 north_osmena_2 north_osmena_3" />
    </vehicle>
    <vehicle id="90_90" depart="654.55" type="taxi">
        <route edges="east_recto_0 east_recto_1 east_recto_2 east_recto_3" />
    </vehicle>
    <vehicle id="90_91" depart="661.82" type="taxi">
        <route edges="south_osmena_0 south_osmena_1 south_osmena_2 south_osmena_3" />
    </vehicle>
    <vehicle id="90_92" depart="669.09" type="taxi">
        <route edges="east_florentino_0 north_osmena_2 south_osmena_1 west_florentino_0" />
    </vehicle>
    <vehicle id="90_93" depart="676.36" type="taxi">
        <route edges="west_luna_0 west_luna_1 north_roa_1" />
    </vehicle>
    <vehicle id="90_94" depart="683.64" type="taxi">
        <route edges="north_corrales_0 north_corrales_1 north_corrales_2" />
    </vehicle>
    <vehicle id="90_95" depart="690.91" type="taxi">
        <route edges="east_recto_0 east_recto_1 east_recto_2 east_recto_3" />
    </vehicle>
    <vehicle id="90_96" depart="698.18" type="taxi">
        <route edges="south_roa_0 south_roa_1 east_recto_2 east_recto_3" />
    </vehicle>
    <vehicle id="90_97" depart="705.45" type="taxi">
        <route edges="east_recto_0 north_osmena_1 north_osmena_2 south_osmena_1 south_osmena_2 west_recto_3" />
    </vehicle>
    <vehicle id="90_98" depart="712.73" type="taxi">
        <route edges="west_recto_0 north_corrales_1 north_corrales_2" />
    </vehicle>
    <vehicle id="90_99" depart="720.00" type="taxi">
        <route edges="south_corrales_0 south_corrales_1 south_corrales_2" />
    </vehicle>
    <vehicle id="90_100" depart="727.27" type="taxi">
        <route edges="east_florentino_0 north_osmena_2 east_luna_0 north_roa_1" />
    </vehicle>
    <vehicle id="90_101" depart="734.55" type="taxi">
        <route edges="south_osmena_0 south_osmena_1 south_osmena_2 west_recto_3" />
    </vehicle>
    <vehicle id="90_102" depart="741.82" type="taxi">
        <route edges="east_recto_0 east_recto_1 east_recto_2 east_recto_3" />
    </vehicle>
    <vehicle id="90_103" depart="749.09" type="taxi">
        <route edges="south_roa_0 south_roa_1 east_recto_2 east_recto_3" />
    </vehicle>
    <vehicle id="90_104" depart="756.36" type="taxi">
        <route edges="south_corrales_0 south_corrales_1 west_recto_1 west_recto_2 west_recto_3" />
    </vehicle>
    <vehicle id="90_105" depart="763.64" type="taxi">
        <route edges="south_corrales_0 south_corrales_1 south_corrales_2" />
    </vehicle>
    <vehicle id="90_106" depart="770.91" type="taxi">
        <route edges="east_florentino_0 north_osmena_2 east_luna_0 north_roa_1" />
    </vehicle>
    <vehicle id="90_107" depart="778.18" type="taxi">
        <route edges="south_roa_0 south_roa_1 east_recto_2 east_recto_3" />
    </vehicle>
    <vehicle id="90_108" depart="785.45" type="taxi">
        <route edges="west_recto_0 west_recto_1 west_recto_2 west_recto_3" />
    </vehicle>
    <vehicle id="90_109" depart="792.73" type="taxi">
        <route edges="west_luna_0 north_corrales_2" />
    </vehicle>
    <vehicle id="90_110" depart="800.00" type="taxi">
        <route edges="north_corrales_0 west_recto_1 west_recto_2 north_osmena_1 north_osmena_2 north_osmena_3" />
    </vehicle>
    <vehicle id="90_111" depart="807.27" type="taxi">
        <route edges="west_luna_0 west_luna_1 north_roa_1" />
    </vehicle>
    <vehicle id="90_112" depart="814.55" type="taxi">
        <route edges="east_recto_0 east_recto_1 east_recto_2 east_recto_3" />
    </vehicle>
    <vehicle id="90_113" depart="821.82" type="taxi">
        <route edges="north_corrales_0 east_recto_3" />
    </vehicle>
    <vehicle id="90_114" depart="829.09" type="taxi">
        <route edges="east_florentino_0 south_osmena_2 east_recto_1 north_roa_0 west_luna_2" />
    </vehicle>
    <vehicle id="90_115" depart="836.36" type="taxi">
        <route edges="south_osmena_0 south_osmena_1 west_florentino_0" />
    </vehicle>
    <vehicle id="90_116" depart="843.64" type="taxi">
        <route edges="east_recto_0 north_osmena_1 north_osmena_2 south_osmena_1 south_osmena_2 west_recto_3" />
    </vehicle>
    <vehicle id="90_117" depart="850.91" type="taxi">
        <route edges="west_recto_0 north_corrales_1 north_corrales_2" />
    </vehicle>
    <vehicle id="90_118" depart="858.18" type="taxi">
        <route edges="south_corrales_0 west_luna_1 south_roa_1 east_recto_2 north_corrales_1 north_corrales_2" />
    </vehicle>
    <vehicle id="90_119" depart="865.45" type="taxi">
        <route edges="south_corrales_0 west_luna_1 south_roa_1 east_recto_2 north_corrales_1 east_luna_2" />
    </vehicle>
    <vehicle id="90_120" depart="872.73" type="taxi">
        <route edges="east_florentino_0 north_osmena_2 north_osmena_3" />
    </vehicle>
    <vehicle id="90_121" depart="880.00" type="taxi">
        <route edges="south_corrales_0 west_luna_1 north_roa_1" />
    </vehicle>
    <vehicle id="90_122" depart="887.27" type="taxi">
        <route edges="east_recto_0 east_recto_1 east_recto_2 north_corrales_1 north_corrales_2" />
    </vehicle>
    <vehicle id="90_123" depart="894.55" type="taxi">
        <route edges="east_recto_0 east_recto_1 east_recto_2 east_recto_3" />
    </vehicle>
    <vehicle id="90_124" depart="901.82" type="taxi">
        <route edges="east_recto_0 east_recto_1 east_recto_2 east_recto_3" />
    </vehicle>
    <vehicle id="90_125" depart="909.09" type="taxi">
        <route edges="west_recto_0 south_corrales_2" />
    </vehicle>
    <vehicle id="90_126" depart="916.36" type="taxi">
        <route edges="east_recto_0 east_recto_1 east_recto_2 east_recto_3" />
    </vehicle>
    <vehicle id="90_127" depart="923.64" type="taxi">
        <route edges="north_osmena_0 north_osmena_1 north_osmena_2 north_osmena_3" />
    </vehicle>
    <vehicle id="90_128" depart="930.91" type="taxi">
        <route edges="west_recto_0 west_recto_1 west_recto_2 south_osmena_3" />
    </vehicle>
    <vehicle id="90_129" depart="938.18" type="taxi">
        <route edges="east_recto_0 east_recto_1 east_recto_2 east_recto_3" />
    </vehicle>
    <vehicle id="90_130" depart="945.45" type="taxi">
        <route edges="south_corrales_0 south_corrales_1 south_corrales_2" />
    </vehicle>
    <vehicle id="90_131" depart="952.73" type="taxi">
        <route edges="south_corrales_0 south_corrales_1 south_corrales_2" />
    </vehicle>
    <vehicle id="90_132" depart="960.00" type="taxi">
        <route edges="south_corrales_0 south_corrales_1 south_corrales_2" />
    </vehicle>
    <vehicle id="90_133" depart="967.27" type="taxi">
        <route edges="west_recto_0 west_recto_1 west_recto_2 south_osmena_3" />
    </vehicle>
    <vehicle id="90_134" depart="974.55" type="taxi">
        <route edges="west_recto_0 west_recto_1 north_roa_0 north_roa_1" />
    </vehicle>
    <vehicle id="90_135" depart="981.82" type="taxi">
        <route edges="south_osmena_0 east_luna_0 east_luna_1 east_luna_2" />
    </vehicle>
    <vehicle id="90_136" depart="989.09" type="taxi">
        <route edges="east_recto_0 east_recto_1 east_recto_2 east_recto_3" />
    </vehicle>
    <vehicle id="90_137" depart="996.36" type="taxi">
        <route edges="north_corrales_0 west_recto_1 west_recto_2 west_recto_3" />
    </vehicle>
    <vehicle id="90_138" depart="1003.64" type="taxi">
        <route edges="east_recto_0 east_recto_1 north_roa_0 north_roa_1" />
    </vehicle>
    <vehicle id="90_139" depart="1010.91" type="taxi">
        <route edges="east_florentino_0 north_osmena_2 north_osmena_3" />
    </vehicle>
    <vehicle id="90_140" depart="1018.18" type="taxi">
        <route edges="east_recto_0 east_recto_1 east_recto_2 east_recto_3" />
    </vehicle>
    <vehicle id="90_141" depart="1025.45" type="taxi">
        <route edges="east_recto_0 east_recto_1 east_recto_2 east_recto_3" />
    </vehicle>
    <vehicle id="90_142" depart="1032.73" type="taxi">
        <route edges="west_recto_0 west_recto_1 west_recto_2 west_recto_3" />
    </vehicle>
    <vehicle id="90_143" depart="1040.00" type="taxi">
        <route edges="south_osmena_0 east_luna_0 north_roa_1" />
    </vehicle>
    <vehicle id="90_144" depart="1047.27" type="taxi">
        <route edges="south_roa_0 south_roa_1 east_recto_2 north_corrales_1 north_corrales_2" />
    </vehicle>
    <vehicle id="90_145" depart="1054.55" type="taxi">
        <route edges="east_florentino_0 north_osmena_2 north_osmena_3" />
    </vehicle>
    <vehicle id="90_146" depart="1061.82" type="taxi">
        <route edges="south_roa_0 east_luna_1 east_luna_2" />
    </vehicle>
    <vehicle id="90_147" depart="1069.09" type="taxi">
        <route edges="south_corrales_0 south_corrales_1 east_recto_3" />
    </vehicle>
    <vehicle id="90_148" depart="1076.36" type="taxi">
        <route edges="east_florentino_0 north_osmena_2 east_luna_0 east_luna_1 east_luna_2" />
    </vehicle>
    <vehicle id="90_149" depart="1083.64" type="taxi">
        <route edges="north_corrales_0 north_corrales_1 north_corrales_2" />
    </vehicle>
    <vehicle id="90_150" depart="1090.91" type="taxi">
        <route edges="east_recto_0 east_recto_1 east_recto_2 east_recto_3" />
    </vehicle>
    <vehicle id="90_151" depart="1098.18" type="taxi">
        <route edges="west_recto_0 west_recto_1 west_recto_2 north_osmena_1 north_osmena_2 north_osmena_3" />
    </vehicle>
    <vehicle id="90_152" depart="1105.45" type="taxi">
        <route edges="south_osmena_0 south_osmena_1 south_osmena_2 south_osmena_3" />
    </vehicle>
    <vehicle id="90_153" depart="1112.73" type="taxi">
        <route edges="west_recto_0 north_corrales_1 north_corrales_2" />
    </vehicle>
    <vehicle id="90_154" depart="1120.00" type="taxi">
        <route edges="west_luna_0 west_luna_1 south_roa_1 east_recto_2 east_recto_3" />
    </vehicle>
    <vehicle id="90_155" depart="1127.27" type="taxi">
        <route edges="south_corrales_0 south_corrales_1 east_recto_3" />
    </vehicle>
    <vehicle id="90_156" depart="1134.55" type="taxi">
        <route edges="south_corrales_0 south_corrales_1 west_recto_1 west_recto_2 west_recto_3" />
    </vehicle>
    <vehicle id="90_157" depart="1141.82" type="taxi">
        <route edges="south_roa_0 south_roa_1 east_recto_2 east_recto_3" />
    </vehicle>
    <vehicle id="90_158" depart="1149.09" type="taxi">
        <route edges="north_corrales_0 east_recto_3" />
    </vehicle>
    <vehicle id="90_159" depart="1156.36" type="taxi">
        <route edges="east_florentino_0 north_osmena_2 north_osmena_3" />
    </vehicle>
    <vehicle id="90_160" depart="1163.64" type="taxi">
        <route edges="north_corrales_0 west_recto_1 west_recto_2 north_osmena_1 north_osmena_2 south_osmena_1 south_osmena_2 east_recto_1 east_recto_2 south_corrales_2" />
    </vehicle>
    <vehicle id="90_161" depart="1170.91" type="taxi">
        <route edges="east_florentino_0 north_osmena_2 east_luna_0 north_roa_1" />
    </vehicle>
    <vehicle id="90_162" depart="1178.18" type="taxi">
        <route edges="north_osmena_0 north_osmena_1 north_osmena_2 north_osmena_3" />
    </vehicle>
    <vehicle id="90_163" depart="1185.45" type="taxi">
        <route edges="south_roa_0 south_roa_1 east_recto_2 east_recto_3" />
    </vehicle>
    <vehicle id="90_164" depart="1192.73" type="taxi">
        <route edges="east_florentino_0 north_osmena_2 north_osmena_3" />
    </vehicle>
    <vehicle id="90_165" depart="1200.00" type="taxi">
        <route edges="west_recto_0 west_recto_1 west_recto_2 west_recto_3" />
    </vehicle>
    <vehicle id="90_166" depart="1207.27" type="taxi">
        <route edges="north_osmena_0 west_recto_3" />
    </vehicle>
    <vehicle id="90_167" depart="1214.55" type="taxi">
        <route edges="west_luna_0 west_luna_1 north_roa_1" />
    </vehicle>
    <vehicle id="90_168" depart="1221.82" type="taxi">
        <route edges="west_recto_0 west_recto_1 west_recto_2 north_osmena_1 north_osmena_2 north_osmena_3" />
    </vehicle>
    <vehicle id="90_169" depart="1229.09" type="taxi">
        <route edges="south_roa_0 south_roa_1 east_recto_2 north_corrales_1 north_corrales_2" />
    </vehicle>
    <vehicle id="90_170" depart="1236.36" type="taxi">
        <route edges="west_luna_0 west_luna_1 south_roa_1 east_recto_2 south_corrales_2" />
    </vehicle>
    <vehicle id="90_171" depart="1243.64" type="taxi">
        <route edges="south_corrales_0 south_corrales_1 west_recto_1 west_recto_2 west_recto_3" />
    </vehicle>
    <vehicle id="90_172" depart="1250.91" type="taxi">
        <route edges="east_florentino_0 north_osmena_2 east_luna_0 east_luna_1 east_luna_2" />
    </vehicle>
    <vehicle id="90_173" depart="1258.18" type="taxi">
        <route edges="south_osmena_0 south_osmena_1 south_osmena_2 south_osmena_3" />
    </vehicle>
    <vehicle id="90_174" depart="1265.45" type="taxi">
        <route edges="west_luna_0 north_corrales_2" />
    </vehicle>
    <vehicle id="90_175" depart="1272.73" type="taxi">
        <route edges="west_luna_0 west_luna_1 west_luna_2 south_osmena_1 west_florentino_0" />
    </vehicle>
    <vehicle id="90_176" depart="1280.00" type="taxi">
        <route edges="west_recto_0 west_recto_1 west_recto_2 west_recto_3" />
    </vehicle>
    <vehicle id="90_177" depart="1287.27" type="taxi">
        <route edges="south_roa_0 east_luna_1 east_luna_2" />
    </vehicle>
    <vehicle id="90_178" depart="1294.55" type="taxi">
        <route edges="west_recto_0 west_recto_1 west_recto_2 north_osmena_1 north_osmena_2 north_osmena_3" />
    </vehicle>
    <vehicle id="90_179" depart="1301.82" type="taxi">
        <route edges="west_recto_0 west_recto_1 west_recto_2 west_recto_3" />
    </vehicle>
    <vehicle id="90_180" depart="1309.09" type="taxi">
        <route edges="north_osmena_0 north_osmena_1 west_florentino_0" />
    </vehicle>
    <vehicle id="90_181" depart="1316.36" type="taxi">
        <route edges="south_roa_0 south_roa_1 west_recto_2 west_recto_3" />
    </vehicle>
    <vehicle id="90_182" depart="1323.64" type="taxi">
        <route edges="east_florentino_0 north_osmena_2 east_luna_0 east_luna_1 east_luna_2" />
    </vehicle>
    <vehicle id="90_183" depart="1330.91" type="taxi">
        <route edges="east_florentino_0 north_osmena_2 east_luna_0 north_roa_1" />
    </vehicle>
    <vehicle id="90_184" depart="1338.18" type="taxi">
        <route edges="south_roa_0 south_roa_1 west_recto_2 south_osmena_3" />
    </vehicle>
    <vehicle id="90_185" depart="1345.45" type="taxi">
        <route edges="south_corrales_0 south_corrales_1 east_recto_3" />
    </vehicle>
    <vehicle id="90_186" depart="1352.73" type="taxi">
        <route edges="north_corrales_0 east_recto_3" />
    </vehicle>
    <vehicle id="90_187" depart="1360.00" type="taxi">
        <route edges="west_recto_1 north_roa_0 east_luna_1 east_luna_2" />
    </vehicle>
    <vehicle id="90_188" depart="1367.27" type="taxi">
        <route edges="south_corrales_0 south_corrales_1 south_corrales_2" />
    </vehicle>
    <vehicle id="90_189" depart="1374.55" type="taxi">
        <route edges="north_corrales_0 east_recto_3" />
    </vehicle>
    <vehicle id="90_190" depart="1381.82" type="taxi">
        <route edges="west_recto_0 west_recto_1 west_recto_2 north_osmena_1 north_osmena_2 south_osmena_1 south_osmena_2 east_recto_1 east_recto_2 east_recto_3" />
    </vehicle>
    <vehicle id="90_191" depart="1389.09" type="taxi">
        <route edges="west_luna_0 north_corrales_2" />
    </vehicle>
    <vehicle id="90_192" depart="1396.36" type="taxi">
        <route edges="south_corrales_0 south_corrales_1 south_corrales_2" />
    </vehicle>
    <vehicle id="90_193" depart="1403.64" type="taxi">
        <route edges="south_corrales_0 south_corrales_1 south_corrales_2" />
    </vehicle>
    <vehicle id="90_194" depart="1410.91" type="taxi">
        <route edges="south_corrales_0 south_corrales_1 east_recto_3" />
    </vehicle>
    <vehicle id="90_195" depart="1418.18" type="taxi">
        <route edges="east_florentino_0 south_osmena_2 west_recto_3" />
    </vehicle>
    <vehicle id="90_196" depart="1425.45" type="taxi">
        <route edges="north_corrales_0 east_recto_3" />
    </vehicle>
    <vehicle id="90_197" depart="1432.73" type="taxi">
        <route edges="north_corrales_0 north_corrales_1 north_corrales_2" />
    </vehicle>
    <vehicle id="90_198" depart="1440.00" type="taxi">
        <route edges="west_luna_0 north_corrales_2" />
    </vehicle>
    <vehicle id="90_199" depart="1447.27" type="taxi">