<?xml version="1.0" encoding="UTF-8"?>

<!-- generated on 2023-03-30 00:07:30 by Eclipse SUMO jtrrouter Version 1.15.0
<configuration xmlns:xsi="http://www.w3.org/2001/XMLSchema-instance" xsi:noNamespaceSchemaLocation="http://sumo.dlr.de/xsd/jtrrouterConfiguration.xsd">

    <input>
        <net-file value="D:\School Documents\Thesis\DQL_AveEntLumRei\Simulation_Environment\Main MADDPG\osm.net.xml"/>
        <route-files value="flows.tmp.xml"/>
        <turn-ratio-files value="Route Files\buses.xml"/>
    </input>

    <output>
        <output-file value="Simulation_Environment\Main MADDPG\Final Route Folder\buses_route.xml"/>
    </output>

    <processing>
        <accept-all-destinations value="true"/>
    </processing>

</configuration>
-->

<routes xmlns:xsi="http://www.w3.org/2001/XMLSchema-instance" xsi:noNamespaceSchemaLocation="http://sumo.dlr.de/xsd/routes_file.xsd">
    <vType accel="0.4" decel="2.0" sigma="0.5" length="15.0" minGap="2.5" maxSpeed="30.0" guiShape="bus" color="0,0,255" id="buses"/>  
    <vehicle id="beast_florentino_0.0" depart="0.00">
        <route edges="east_florentino_0 south_osmena_2 south_osmena_3"/>
    </vehicle>
    <vehicle id="beast_recto_0.0" depart="0.00">
        <route edges="east_recto_0 east_recto_1 east_recto_2 east_recto_3"/>
    </vehicle>
    <vehicle id="beast_recto_1.0" depart="0.00">
        <route edges="east_recto_1 east_recto_2 east_recto_3"/>
    </vehicle>
    <vehicle id="beast_recto_2.0" depart="0.00">
        <route edges="east_recto_2 east_recto_3"/>
    </vehicle>
    <vehicle id="bnorth_corrales_0.0" depart="0.00">
        <route edges="north_corrales_0 north_corrales_1 north_corrales_2"/>
    </vehicle>
    <vehicle id="bnorth_osmena_1.0" depart="0.00">
        <route edges="north_osmena_1 north_osmena_2 north_osmena_3"/>
    </vehicle>
    <vehicle id="bnorth_osmena_2.0" depart="0.00">
        <route edges="north_osmena_2 north_osmena_3"/>
    </vehicle>
    <vehicle id="bsouth_corrales_1.0" depart="0.00">
        <route edges="south_corrales_1 south_corrales_2"/>
    </vehicle>
    <vehicle id="bsouth_osmena_0.0" depart="0.00">
        <route edges="south_osmena_0 south_osmena_1 south_osmena_2 west_recto_3"/>
    </vehicle>
    <vehicle id="bsouth_osmena_1.0" depart="0.00">
        <route edges="south_osmena_1 west_florentino_0"/>
    </vehicle>
    <vehicle id="bsouth_roa_1.0" depart="0.00">
        <route edges="south_roa_1 west_recto_2 west_recto_3"/>
    </vehicle>
    <vehicle id="bwest_recto_0.0" depart="0.00">
        <route edges="west_recto_0 north_corrales_1 east_luna_2"/>
    </vehicle>
    <vehicle id="bwest_recto_2.0" depart="0.00">
        <route edges="west_recto_2 west_recto_3"/>
    </vehicle>
    <vehicle id="bwest_recto_0.1" depart="138.46">
        <route edges="west_recto_0 west_recto_1 west_recto_2 west_recto_3"/>
    </vehicle>
    <vehicle id="beast_recto_2.1" depart="189.47">
        <route edges="east_recto_2 north_corrales_1 east_luna_2"/>
    </vehicle>
    <vehicle id="bwest_recto_0.2" depart="276.92">
        <route edges="west_recto_0 west_recto_1 north_roa_0 east_luna_1 south_corrales_1 south_corrales_2"/>
    </vehicle>
    <vehicle id="beast_recto_2.2" depart="378.95">
        <route edges="east_recto_2 east_recto_3"/>
    </vehicle>
    <vehicle id="bwest_recto_0.3" depart="415.38">
        <route edges="west_recto_0 west_recto_1 north_roa_0 north_roa_1"/>
    </vehicle>
    <vehicle id="bsouth_corrales_1.1" depart="450.00">
        <route edges="south_corrales_1 south_corrales_2"/>
    </vehicle>
    <vehicle id="bnorth_corrales_0.1" depart="514.29">
        <route edges="north_corrales_0 east_recto_3"/>
    </vehicle>
    <vehicle id="bsouth_osmena_1.1" depart="514.29">
        <route edges="south_osmena_1 south_osmena_2 south_osmena_3"/>
    </vehicle>
    <vehicle id="bwest_recto_0.4" depart="553.84">
        <route edges="west_recto_0 west_recto_1 north_roa_0 east_luna_1 south_corrales_1 south_corrales_2"/>
    </vehicle>
    <vehicle id="beast_recto_2.3" depart="568.42">
        <route edges="east_recto_2 east_recto_3"/>
    </vehicle>
    <vehicle id="bnorth_osmena_1.1" depart="600.00">
        <route edges="north_osmena_1 north_osmena_2 east_luna_0 east_luna_1 east_luna_2"/>
    </vehicle>
    <vehicle id="bnorth_osmena_2.1" depart="600.00">
        <route edges="north_osmena_2 north_osmena_3"/>
    </vehicle>
    <vehicle id="bwest_recto_0.5" depart="692.31">
        <route edges="west_recto_0 west_recto_1 west_recto_2 west_recto_3"/>
    </vehicle>
    <vehicle id="beast_recto_2.4" depart="757.89">
        <route edges="east_recto_2 east_recto_3"/>
    </vehicle>
    <vehicle id="bwest_recto_0.6" depart="830.77">
        <route edges="west_recto_0 west_recto_1 west_recto_2 south_osmena_3"/>
    </vehicle>
    <vehicle id="bsouth_corrales_1.2" depart="900.00">
        <route edges="south_corrales_1 west_recto_1 north_roa_0 north_roa_1"/>
    </vehicle>
    <vehicle id="bsouth_roa_1.1" depart="900.00">
        <route edges="south_roa_1 west_recto_2 south_osmena_3"/>
    </vehicle>
    <vehicle id="bwest_recto_2.1" depart="900.00">
        <route edges="west_recto_2 west_recto_3"/>
    </vehicle>
    <vehicle id="beast_recto_2.5" depart="947.37">
        <route edges="east_recto_2 east_recto_3"/>
    </vehicle>
    <vehicle id="bwest_recto_0.7" depart="969.23">
        <route edges="west_recto_0 west_recto_1 north_roa_0 east_luna_1 east_luna_2"/>
    </vehicle>
    <vehicle id="bnorth_corrales_0.2" depart="1028.57">
        <route edges="north_corrales_0 north_corrales_1 east_luna_2"/>
    </vehicle>
    <vehicle id="bsouth_osmena_1.2" depart="1028.57">
        <route edges="south_osmena_1 south_osmena_2 south_osmena_3"/>
    </vehicle>
    <vehicle id="bwest_recto_0.8" depart="1107.69">
        <route edges="west_recto_0 west_recto_1 north_roa_0 east_luna_1 south_corrales_1 south_corrales_2"/>
    </vehicle>
    <vehicle id="beast_recto_2.6" depart="1136.84">
        <route edges="east_recto_2 east_recto_3"/>
    </vehicle>
    <vehicle id="bnorth_osmena_1.2" depart="1200.00">
        <route edges="north_osmena_1 north_osmena_2 north_osmena_3"/>
    </vehicle>
    <vehicle id="bnorth_osmena_2.2" depart="1200.00">
        <route edges="north_osmena_2 north_osmena_3"/>
    </vehicle>
    <vehicle id="bsouth_osmena_0.1" depart="1200.00">
        <route edges="south_osmena_0 south_osmena_1 south_osmena_2 south_osmena_3"/>
    </vehicle>
    <vehicle id="bwest_recto_0.9" depart="1246.15">
        <route edges="west_recto_0 west_recto_1 west_recto_2 west_recto_3"/>
    </vehicle>
    <vehicle id="beast_recto_2.7" depart="1326.31">
        <route edges="east_recto_2 east_recto_3"/>
    </vehicle>
    <vehicle id="bsouth_corrales_1.3" depart="1350.00">
        <route edges="south_corrales_1 south_corrales_2"/>
    </vehicle>
    <vehicle id="bwest_recto_0.10" depart="1384.61">
        <route edges="west_recto_0 west_recto_1 north_roa_0 north_roa_1"/>
    </vehicle>
    <vehicle id="beast_recto_2.8" depart="1515.78">
        <route edges="east_recto_2 east_recto_3"/>
    </vehicle>
    <vehicle id="bwest_recto_0.11" depart="1523.07">
        <route edges="west_recto_0 west_recto_1 west_recto_2 west_recto_3"/>
    </vehicle>
    <vehicle id="bnorth_corrales_0.3" depart="1542.86">
        <route edges="north_corrales_0 north_corrales_1 east_luna_2"/>
    </vehicle>
    <vehicle id="bsouth_osmena_1.3" depart="1542.86">
        <route edges="south_osmena_1 south_osmena_2 south_osmena_3"/>
    </vehicle>
    <vehicle id="bwest_recto_0.12" depart="1661.53">
        <route edges="west_recto_0 west_recto_1 west_recto_2 west_recto_3"/>
    </vehicle>
    <vehicle id="beast_recto_2.9" depart="1705.26">
        <route edges="east_recto_2 east_recto_3"/>
    </vehicle>
    <vehicle id="bwest_recto_0.13" depart="1799.99">
        <route edges="west_recto_0 west_recto_1 north_roa_0 north_roa_1"/>
    </vehicle>
    <vehicle id="beast_recto_0.1" depart="1800.00">
        <route edges="east_recto_0 east_recto_1 east_recto_2 east_recto_3"/>
    </vehicle>
    <vehicle id="beast_recto_1.1" depart="1800.00">
        <route edges="east_recto_1 east_recto_2 east_recto_3"/>
    </vehicle>
    <vehicle id="bnorth_osmena_1.3" depart="1800.00">
        <route edges="north_osmena_1 north_osmena_2 east_luna_0 east_luna_1 south_corrales_1 west_recto_1 north_roa_0 north_roa_1"/>
    </vehicle>
    <vehicle id="bnorth_osmena_2.3" depart="1800.00">
        <route edges="north_osmena_2 east_luna_0 east_luna_1 east_luna_2"/>
    </vehicle>
    <vehicle id="bsouth_corrales_1.4" depart="1800.00">
        <route edges="south_corrales_1 west_recto_1 west_recto_2 south_osmena_3"/>
    </vehicle>
    <vehicle id="bsouth_roa_1.2" depart="1800.00">
        <route edges="south_roa_1 west_recto_2 west_recto_3"/>
    </vehicle>
    <vehicle id="bwest_recto_2.2" depart="1800.00">
        <route edges="west_recto_2 west_recto_3"/>
    </vehicle>
    <vehicle id="beast_recto_2.10" depart="1894.73">
        <route edges="east_recto_2 east_recto_3"/>
    </vehicle>
    <vehicle id="bwest_recto_0.14" depart="1938.45">
        <route edges="west_recto_0 west_recto_1 north_roa_0 north_roa_1"/>
    </vehicle>
    <vehicle id="bnorth_corrales_0.4" depart="2057.14">
        <route edges="north_corrales_0 north_corrales_1 north_corrales_2"/>
    </vehicle>
    <vehicle id="bsouth_osmena_1.4" depart="2057.14">
        <route edges="south_osmena_1 south_osmena_2 west_recto_3"/>
    </vehicle>
    <vehicle id="bwest_recto_0.15" depart="2076.92">
        <route edges="west_recto_0 west_recto_1 west_recto_2 west_recto_3"/>
    </vehicle>
    <vehicle id="beast_recto_2.11" depart="2084.20">
        <route edges="east_recto_2 north_corrales_1 east_luna_2"/>
    </vehicle>
    <vehicle id="bwest_recto_0.16" depart="2215.38">
        <route edges="west_recto_0 north_corrales_1 north_corrales_2"/>
    </vehicle>
    <vehicle id="bsouth_corrales_1.5" depart="2250.00">
        <route edges="south_corrales_1 west_recto_1 north_roa_0 west_luna_2 north_osmena_3"/>
    </vehicle>
    <vehicle id="beast_recto_2.12" depart="2273.68">
        <route edges="east_recto_2 east_recto_3"/>
    </vehicle>
    <vehicle id="bwest_recto_0.17" depart="2353.84">
        <route edges="west_recto_0 west_recto_1 north_roa_0 north_roa_1"/>
    </vehicle>
    <vehicle id="bnorth_osmena_1.4" depart="2400.00">
        <route edges="north_osmena_1 north_osmena_2 north_osmena_3"/>
    </vehicle>
    <vehicle id="bnorth_osmena_2.4" depart="2400.00">
        <route edges="north_osmena_2 north_osmena_3"/>
    </vehicle>
    <vehicle id="bsouth_osmena_0.2" depart="2400.00">
        <route edges="south_osmena_0 east_luna_0 east_luna_1 east_luna_2"/>
    </vehicle>
    <vehicle id="beast_recto_2.13" depart="2463.15">
        <route edges="east_recto_2 east_recto_3"/>
    </vehicle>
    <vehicle id="bwest_recto_0.18" depart="2492.30">
        <route edges="west_recto_0 south_corrales_2"/>
    </vehicle>
    <vehicle id="bnorth_corrales_0.5" depart="2571.43">
        <route edges="north_corrales_0 north_corrales_1 north_corrales_2"/>
    </vehicle>
    <vehicle id="bsouth_osmena_1.5" depart="2571.43">
        <route edges="south_osmena_1 south_osmena_2 east_recto_1 east_recto_2 north_corrales_1 north_corrales_2"/>
    </vehicle>
    <vehicle id="bwest_recto_0.19" depart="2630.76">
        <route edges="west_recto_0 west_recto_1 west_recto_2 west_recto_3"/>
    </vehicle>
    <vehicle id="beast_recto_2.14" depart="2652.62">
        <route edges="east_recto_2 east_recto_3"/>
    </vehicle>
    <vehicle id="bsouth_corrales_1.6" depart="2700.00">
        <route edges="south_corrales_1 east_recto_3"/>
    </vehicle>
    <vehicle id="bsouth_roa_1.3" depart="2700.00">
        <route edges="south_roa_1 west_recto_2 west_recto_3"/>
    </vehicle>
    <vehicle id="bwest_recto_2.3" depart="2700.00">
        <route edges="west_recto_2 west_recto_3"/>
    </vehicle>
    <vehicle id="bwest_recto_0.20" depart="2769.22">
        <route edges="west_recto_0 west_recto_1 north_roa_0 west_luna_2 north_osmena_3"/>
    </vehicle>
    <vehicle id="beast_recto_2.15" depart="2842.10">
        <route edges="east_recto_2 east_recto_3"/>
    </vehicle>
    <vehicle id="bwest_recto_0.21" depart="2907.68">
        <route edges="west_recto_0 south_corrales_2"/>
    </vehicle>
    <vehicle id="bnorth_osmena_1.5" depart="3000.00">
        <route edges="north_osmena_1 north_osmena_2 east_luna_0 south_roa_1 west_recto_2 south_osmena_3"/>
    </vehicle>
    <vehicle id="bnorth_osmena_2.5" depart="3000.00">
        <route edges="north_osmena_2 north_osmena_3"/>
    </vehicle>
    <vehicle id="beast_recto_2.16" depart="3031.57">
        <route edges="east_recto_2 north_corrales_1 east_luna_2"/>
    </vehicle>
    <vehicle id="bwest_recto_0.22" depart="3046.14">
        <route edges="west_recto_0 west_recto_1 west_recto_2 west_recto_3"/>
    </vehicle>
    <vehicle id="bnorth_corrales_0.6" depart="3085.71">
        <route edges="north_corrales_0 north_corrales_1 east_luna_2"/>
    </vehicle>
    <vehicle id="bsouth_osmena_1.6" depart="3085.71">
        <route edges="south_osmena_1 west_florentino_0"/>
    </vehicle>
    <vehicle id="bsouth_corrales_1.7" depart="3150.00">
        <route edges="south_corrales_1 east_recto_3"/>
    </vehicle>
    <vehicle id="bwest_recto_0.23" depart="3184.60">
        <route edges="west_recto_0 west_recto_1 west_recto_2 west_recto_3"/>
    </vehicle>
    <vehicle id="beast_recto_2.17" depart="3221.04">
        <route edges="east_recto_2 east_recto_3"/>
    </vehicle>
    <vehicle id="bwest_recto_0.24" depart="3323.06">
        <route edges="west_recto_0 south_corrales_2"/>
    </vehicle>
    <vehicle id="beast_recto_2.18" depart="3410.51">
        <route edges="east_recto_2 east_recto_3"/>
    </vehicle>
    <vehicle id="bwest_recto_0.25" depart="3461.53">
        <route edges="west_recto_0 north_corrales_1 north_corrales_2"/>
    </vehicle>
    <vehicle id="beast_florentino_0#1.0" depart="3600.00">
        <route edges="east_florentino_0 south_osmena_2 south_osmena_3"/>
    </vehicle>
    <vehicle id="beast_recto_0#1.0" depart="3600.00">
        <route edges="east_recto_0 east_recto_1 east_recto_2 east_recto_3"/>
    </vehicle>
    <vehicle id="beast_recto_1#1.0" depart="3600.00">
        <route edges="east_recto_1 east_recto_2 east_recto_3"/>
    </vehicle>
    <vehicle id="beast_recto_2#1.0" depart="3600.00">
        <route edges="east_recto_2 east_recto_3"/>
    </vehicle>
    <vehicle id="bnorth_corrales_0#1.0" depart="3600.00">
        <route edges="north_corrales_0 north_corrales_1 north_corrales_2"/>
    </vehicle>
    <vehicle id="bnorth_osmena_0#1.0" depart="3600.00">
        <route edges="north_osmena_0 north_osmena_1 north_osmena_2 north_osmena_3"/>
    </vehicle>
    <vehicle id="bnorth_osmena_1#1.0" depart="3600.00">
        <route edges="north_osmena_1 north_osmena_2 east_luna_0 east_luna_1 south_corrales_1 south_corrales_2"/>
    </vehicle>
    <vehicle id="bnorth_osmena_2#1.0" depart="3600.00">
        <route edges="north_osmena_2 east_luna_0 east_luna_1 east_luna_2"/>
    </vehicle>
    <vehicle id="bsouth_corrales_1#1.0" depart="3600.00">
        <route edges="south_corrales_1 west_recto_1 north_roa_0 west_luna_2 north_osmena_3"/>
    </vehicle>
    <vehicle id="bsouth_osmena_0#1.0" depart="3600.00">
        <route edges="south_osmena_0 east_luna_0 east_luna_1 south_corrales_1 south_corrales_2"/>
    </vehicle>
    <vehicle id="bsouth_osmena_1#1.0" depart="3600.00">
        <route edges="south_osmena_1 south_osmena_2 south_osmena_3"/>
    </vehicle>
    <vehicle id="bsouth_osmena_2#1.0" depart="3600.00">
        <route edges="south_osmena_2 south_osmena_3"/>
    </vehicle>
    <vehicle id="bsouth_roa_1#1.0" depart="3600.00">
        <route edges="south_roa_1 west_recto_2 west_recto_3"/>
    </vehicle>
    <vehicle id="bwest_luna_2#1.0" depart="3600.00">
        <route edges="west_luna_2 north_osmena_3"/>
    </vehicle>
    <vehicle id="bwest_recto_0#1.0" depart="3600.00">
        <route edges="west_recto_0 north_corrales_1 east_luna_2"/>
    </vehicle>
    <vehicle id="bwest_recto_2#1.0" depart="3600.00">
        <route edges="west_recto_2 west_recto_3"/>
    </vehicle>
    <vehicle id="bwest_recto_0#1.1" depart="3687.80">
        <route edges="west_recto_0 north_corrales_1 east_luna_2"/>
    </vehicle>
    <vehicle id="beast_recto_2#1.1" depart="3700.00">
        <route edges="east_recto_2 east_recto_3"/>
    </vehicle>
    <vehicle id="bwest_recto_0#1.2" depart="3775.61">
        <route edges="west_recto_0 west_recto_1 north_roa_0 north_roa_1"/>
    </vehicle>
    <vehicle id="beast_recto_2#1.2" depart="3800.00">
        <route edges="east_recto_2 east_recto_3"/>
    </vehicle>
    <vehicle id="bsouth_corrales_1#1.1" depart="3857.14">
        <route edges="south_corrales_1 east_recto_3"/>
    </vehicle>
    <vehicle id="bwest_recto_0#1.3" depart="3863.41">
        <route edges="west_recto_0 west_recto_1 north_roa_0 north_roa_1"/>
    </vehicle>
    <vehicle id="beast_recto_2#1.3" depart="3900.00">
        <route edges="east_recto_2 east_recto_3"/>
    </vehicle>
    <vehicle id="bnorth_corrales_0#1.1" depart="3927.27">
        <route edges="north_corrales_0 north_corrales_1 north_corrales_2"/>
    </vehicle>
    <vehicle id="bwest_recto_0#1.4" depart="3951.22">
        <route edges="west_recto_0 west_recto_1 north_roa_0 north_roa_1"/>
    </vehicle>
    <vehicle id="beast_recto_2#1.4" depart="4000.00">
        <route edges="east_recto_2 east_recto_3"/>
    </vehicle>
    <vehicle id="bwest_recto_0#1.5" depart="4039.02">
        <route edges="west_recto_0 west_recto_1 north_roa_0 east_luna_1 south_corrales_1 south_corrales_2"/>
    </vehicle>
    <vehicle id="bnorth_osmena_1#1.1" depart="4050.00">
        <route edges="north_osmena_1 north_osmena_2 east_luna_0 north_roa_1"/>
    </vehicle>
    <vehicle id="bnorth_osmena_2#1.1" depart="4050.00">
        <route edges="north_osmena_2 north_osmena_3"/>
    </vehicle>
    <vehicle id="bsouth_osmena_1#1.1" depart="4050.00">
        <route edges="south_osmena_1 south_osmena_2 east_recto_1 east_recto_2 east_recto_3"/>
    </vehicle>
    <vehicle id="beast_recto_2#1.5" depart="4100.00">
        <route edges="east_recto_2 east_recto_3"/>
    </vehicle>
    <vehicle id="bsouth_corrales_1#1.2" depart="4114.28">
        <route edges="south_corrales_1 south_corrales_2"/>
    </vehicle>
    <vehicle id="bwest_recto_2#1.1" depart="4114.29">
        <route edges="west_recto_2 west_recto_3"/>
    </vehicle>
    <vehicle id="bwest_recto_0#1.6" depart="4126.82">
        <route edges="west_recto_0 west_recto_1 west_recto_2 west_recto_3"/>
    </vehicle>
    <vehicle id="beast_recto_2#1.6" depart="4200.00">
        <route edges="east_recto_2 east_recto_3"/>
    </vehicle>
    <vehicle id="bwest_recto_0#1.7" depart="4214.63">
        <route edges="west_recto_0 west_recto_1 north_roa_0 north_roa_1"/>
    </vehicle>
    <vehicle id="bnorth_corrales_0#1.2" depart="4254.54">
        <route edges="north_corrales_0 north_corrales_1 east_luna_2"/>
    </vehicle>
    <vehicle id="beast_recto_2#1.7" depart="4300.00">
        <route edges="east_recto_2 north_corrales_1 north_corrales_2"/>
    </vehicle>
    <vehicle id="bwest_recto_0#1.8" depart="4302.43">
        <route edges="west_recto_0 west_recto_1 north_roa_0 west_luna_2 south_osmena_1 south_osmena_2 east_recto_1 east_recto_2 south_corrales_2"/>
    </vehicle>
    <vehicle id="bsouth_corrales_1#1.3" depart="4371.43">
        <route edges="south_corrales_1 south_corrales_2"/>
    </vehicle>
    <vehicle id="bwest_recto_0#1.9" depart="4390.24">
        <route edges="west_recto_0 west_recto_1 north_roa_0 west_luna_2 south_osmena_1 west_florentino_0"/>
    </vehicle>
    <vehicle id="beast_recto_2#1.8" depart="4400.00">
        <route edges="east_recto_2 east_recto_3"/>
    </vehicle>
    <vehicle id="bwest_recto_0#1.10" depart="4478.04">
        <route edges="west_recto_0 north_corrales_1 east_luna_2"/>
    </vehicle>
    <vehicle id="beast_recto_0#1.1" depart="4500.00">
        <route edges="east_recto_0 east_recto_1 east_recto_2 east_recto_3"/>
    </vehicle>
    <vehicle id="beast_recto_1#1.1" depart="4500.00">
        <route edges="east_recto_1 east_recto_2 north_corrales_1 east_luna_2"/>
    </vehicle>
    <vehicle id="beast_recto_2#1.9" depart="4500.00">
        <route edges="east_recto_2 east_recto_3"/>
    </vehicle>
    <vehicle id="bnorth_osmena_1#1.2" depart="4500.00">
        <route edges="north_osmena_1 west_florentino_0"/>
    </vehicle>
    <vehicle id="bnorth_osmena_2#1.2" depart="4500.00">
        <route edges="north_osmena_2 north_osmena_3"/>
    </vehicle>
    <vehicle id="bsouth_osmena_0#1.1" depart="4500.00">
        <route edges="south_osmena_0 east_luna_0 south_roa_1 west_recto_2 south_osmena_3"/>
    </vehicle>
    <vehicle id="bsouth_osmena_1#1.2" depart="4500.00">
        <route edges="south_osmena_1 south_osmena_2 south_osmena_3"/>
    </vehicle>
    <vehicle id="bsouth_roa_1#1.1" depart="4500.00">
        <route edges="south_roa_1 west_recto_2 west_recto_3"/>
    </vehicle>
    <vehicle id="bwest_recto_0#1.11" depart="4565.84">
        <route edges="west_recto_0 west_recto_1 north_roa_0 north_roa_1"/>
    </vehicle>
    <vehicle id="bnorth_corrales_0#1.3" depart="4581.82">
        <route edges="north_corrales_0 north_corrales_1 north_corrales_2"/>
    </vehicle>
    <vehicle id="beast_recto_2#1.10" depart="4600.00">
        <route edges="east_recto_2 east_recto_3"/>
    </vehicle>
    <vehicle id="bsouth_corrales_1#1.4" depart="4628.57">
        <route edges="south_corrales_1 south_corrales_2"/>
    </vehicle>
    <vehicle id="bwest_recto_2#1.2" depart="4628.57">
        <route edges="west_recto_2 west_recto_3"/>
    </vehicle>
    <vehicle id="bwest_recto_0#1.12" depart="4653.65">
        <route edges="west_recto_0 west_recto_1 north_roa_0 east_luna_1 south_corrales_1 east_recto_3"/>
    </vehicle>
    <vehicle id="beast_recto_2#1.11" depart="4700.00">
        <route edges="east_recto_2 east_recto_3"/>
    </vehicle>
    <vehicle id="bwest_recto_0#1.13" depart="4741.45">
        <route edges="west_recto_0 north_corrales_1 east_luna_2"/>
    </vehicle>
    <vehicle id="beast_recto_2#1.12" depart="4800.00">
        <route edges="east_recto_2 north_corrales_1 east_luna_2"/>
    </vehicle>
    <vehicle id="bwest_recto_0#1.14" depart="4829.26">
        <route edges="west_recto_0 west_recto_1 west_recto_2 north_osmena_1 west_florentino_0"/>
    </vehicle>
    <vehicle id="bsouth_corrales_1#1.5" depart="4885.71">
        <route edges="south_corrales_1 south_corrales_2"/>
    </vehicle>
    <vehicle id="beast_recto_2#1.13" depart="4900.00">
        <route edges="east_recto_2 east_recto_3"/>
    </vehicle>
    <vehicle id="bnorth_corrales_0#1.4" depart="4909.09">
        <route edges="north_corrales_0 north_corrales_1 east_luna_2"/>
    </vehicle>
    <vehicle id="bwest_recto_0#1.15" depart="4917.06">
        <route edges="west_recto_0 west_recto_1 north_roa_0 north_roa_1"/>
    </vehicle>
    <vehicle id="bnorth_osmena_1#1.3" depart="4950.00">
        <route edges="north_osmena_1 north_osmena_2 east_luna_0 north_roa_1"/>
    </vehicle>
    <vehicle id="bnorth_osmena_2#1.3" depart="4950.00">
        <route edges="north_osmena_2 north_osmena_3"/>
    </vehicle>
    <vehicle id="bsouth_osmena_1#1.3" depart="4950.00">
        <route edges="south_osmena_1 south_osmena_2 south_osmena_3"/>
    </vehicle>
    <vehicle id="beast_recto_2#1.14" depart="5000.00">
        <route edges="east_recto_2 south_corrales_2"/>
    </vehicle>
    <vehicle id="bwest_recto_0#1.16" depart="5004.86">
        <route edges="west_recto_0 west_recto_1 north_roa_0 north_roa_1"/>
    </vehicle>
    <vehicle id="bwest_recto_0#1.17" depart="5092.67">
        <route edges="west_recto_0 north_corrales_1 east_luna_2"/>
    </vehicle>
    <vehicle id="beast_recto_2#1.15" depart="5100.00">
        <route edges="east_recto_2 north_corrales_1 north_corrales_2"/>
    </vehicle>
    <vehicle id="bsouth_corrales_1#1.6" depart="5142.85">
        <route edges="south_corrales_1 south_corrales_2"/>
    </vehicle>
    <vehicle id="bwest_recto_2#1.3" depart="5142.86">
        <route edges="west_recto_2 west_recto_3"/>
    </vehicle>
    <vehicle id="bwest_recto_0#1.18" depart="5180.47">
        <route edges="west_recto_0 south_corrales_2"/>
    </vehicle>
    <vehicle id="beast_recto_2#1.16" depart="5200.00">
        <route edges="east_recto_2 east_recto_3"/>
    </vehicle>
    <vehicle id="bnorth_corrales_0#1.5" depart="5236.36">
        <route edges="north_corrales_0 east_recto_3"/>
    </vehicle>
    <vehicle id="bwest_recto_0#1.19" depart="5268.28">
        <route edges="west_recto_0 north_corrales_1 north_corrales_2"/>
    </vehicle>
    <vehicle id="beast_recto_2#1.17" depart="5300.00">
        <route edges="east_recto_2 north_corrales_1 east_luna_2"/>
    </vehicle>
    <vehicle id="bwest_recto_0#1.20" depart="5356.08">
        <route edges="west_recto_0 south_corrales_2"/>
    </vehicle>
    <vehicle id="bsouth_corrales_1#1.7" depart="5399.99">
        <route edges="south_corrales_1 east_recto_3"/>
    </vehicle>
    <vehicle id="beast_recto_0#1.2" depart="5400.00">
        <route edges="east_recto_0 east_recto_1 east_recto_2 east_recto_3"/>
    </vehicle>
    <vehicle id="beast_recto_1#1.2" depart="5400.00">
        <route edges="east_recto_1 east_recto_2 east_recto_3"/>
    </vehicle>
    <vehicle id="beast_recto_2#1.18" depart="5400.00">
        <route edges="east_recto_2 east_recto_3"/>
    </vehicle>
    <vehicle id="bnorth_osmena_1#1.4" depart="5400.00">
        <route edges="north_osmena_1 north_osmena_2 north_osmena_3"/>
    </vehicle>
    <vehicle id="bnorth_osmena_2#1.4" depart="5400.00">
        <route edges="north_osmena_2 north_osmena_3"/>
    </vehicle>
    <vehicle id="bsouth_osmena_0#1.2" depart="5400.00">
        <route edges="south_osmena_0 south_osmena_1 south_osmena_2 south_osmena_3"/>
    </vehicle>
    <vehicle id="bsouth_osmena_1#1.4" depart="5400.00">
        <route edges="south_osmena_1 south_osmena_2 south_osmena_3"/>
    </vehicle>
    <vehicle id="bsouth_osmena_2#1.1" depart="5400.00">
        <route edges="south_osmena_2 east_recto_1 east_recto_2 east_recto_3"/>
    </vehicle>
    <vehicle id="bsouth_roa_1#1.2" depart="5400.00">
        <route edges="south_roa_1 west_recto_2 north_osmena_1 north_osmena_2 east_luna_0 north_roa_1"/>
    </vehicle>
    <vehicle id="bwest_luna_2#1.1" depart="5400.00">
        <route edges="west_luna_2 south_osmena_1 south_osmena_2 south_osmena_3"/>
    </vehicle>
    <vehicle id="bwest_recto_0#1.21" depart="5443.88">
        <route edges="west_recto_0 west_recto_1 north_roa_0 east_luna_1 east_luna_2"/>
    </vehicle>
    <vehicle id="beast_recto_2#1.19" depart="5500.00">
        <route edges="east_recto_2 east_recto_3"/>
    </vehicle>
    <vehicle id="bwest_recto_0#1.22" depart="5531.69">
        <route edges="west_recto_0 west_recto_1 north_roa_0 east_luna_1 south_corrales_1 south_corrales_2"/>
    </vehicle>
    <vehicle id="bnorth_corrales_0#1.6" depart="5563.63">
        <route edges="north_corrales_0 north_corrales_1 north_corrales_2"/>
    </vehicle>
    <vehicle id="beast_recto_2#1.20" depart="5600.00">
        <route edges="east_recto_2 east_recto_3"/>
    </vehicle>
    <vehicle id="bwest_recto_0#1.23" depart="5619.49">
        <route edges="west_recto_0 west_recto_1 north_roa_0 west_luna_2 south_osmena_1 south_osmena_2 east_recto_1 east_recto_2 east_recto_3"/>
    </vehicle>
    <vehicle id="bsouth_corrales_1#1.8" depart="5657.14">
        <route edges="south_corrales_1 west_recto_1 north_roa_0 east_luna_1 east_luna_2"/>
    </vehicle>
    <vehicle id="bwest_recto_2#1.4" depart="5657.14">
        <route edges="west_recto_2 west_recto_3"/>
    </vehicle>
    <vehicle id="beast_recto_2#1.21" depart="5700.00">
        <route edges="east_recto_2 east_recto_3"/>
    </vehicle>
    <vehicle id="bwest_recto_0#1.24" depart="5707.30">
        <route edges="west_recto_0 west_recto_1 north_roa_0 east_luna_1 south_corrales_1 south_corrales_2"/>
    </vehicle>
    <vehicle id="bwest_recto_0#1.25" depart="5795.10">
        <route edges="west_recto_0 west_recto_1 north_roa_0 east_luna_1 east_luna_2"/>
    </vehicle>
    <vehicle id="beast_recto_2#1.22" depart="5800.00">
        <route edges="east_recto_2 east_recto_3"/>
    </vehicle>
    <vehicle id="bnorth_osmena_1#1.5" depart="5850.00">
        <route edges="north_osmena_1 north_osmena_2 north_osmena_3"/>
    </vehicle>
    <vehicle id="bnorth_osmena_2#1.5" depart="5850.00">
        <route edges="north_osmena_2 north_osmena_3"/>
    </vehicle>
    <vehicle id="bsouth_osmena_1#1.5" depart="5850.00">
        <route edges="south_osmena_1 west_florentino_0"/>
    </vehicle>
    <vehicle id="bwest_recto_0#1.26" depart="5882.90">
        <route edges="west_recto_0 west_recto_1 west_recto_2 west_recto_3"/>
    </vehicle>
    <vehicle id="bnorth_corrales_0#1.7" depart="5890.90">
        <route edges="north_corrales_0 north_corrales_1 east_luna_2"/>
    </vehicle>
    <vehicle id="beast_recto_2#1.23" depart="5900.00">
        <route edges="east_recto_2 north_corrales_1 east_luna_2"/>
    </vehicle>
    <vehicle id="bsouth_corrales_1#1.9" depart="5914.28">
        <route edges="south_corrales_1 south_corrales_2"/>
    </vehicle>
    <vehicle id="bwest_recto_0#1.27" depart="5970.71">
        <route edges="west_recto_0 west_recto_1 west_recto_2 south_osmena_3"/>
    </vehicle>
    <vehicle id="beast_recto_2#1.24" depart="6000.00">
        <route edges="east_recto_2 east_recto_3"/>
    </vehicle>
    <vehicle id="bwest_recto_0#1.28" depart="6058.51">
        <route edges="west_recto_0 west_recto_1 west_recto_2 west_recto_3"/>
    </vehicle>
    <vehicle id="beast_recto_2#1.25" depart="6100.00">
        <route edges="east_recto_2 east_recto_3"/>
    </vehicle>