<?xml version="1.0" encoding="UTF-8"?>

<!-- generated on 2023-03-30 00:09:04 by Eclipse SUMO jtrrouter Version 1.15.0
<configuration xmlns:xsi="http://www.w3.org/2001/XMLSchema-instance" xsi:noNamespaceSchemaLocation="http://sumo.dlr.de/xsd/jtrrouterConfiguration.xsd">

    <input>
        <net-file value="D:\School Documents\Thesis\DQL_AveEntLumRei\Simulation_Environment\Main MADDPG\osm.net.xml"/>
        <route-files value="flows.tmp.xml"/>
        <turn-ratio-files value="Route Files\jeepney.xml"/>
    </input>

    <output>
        <output-file value="Simulation_Environment\Main MADDPG\Final Route Folder\jeepney_route.xml"/>
    </output>

    <processing>
        <accept-all-destinations value="true"/>
    </processing>

</configuration>
-->

<routes xmlns:xsi="http://www.w3.org/2001/XMLSchema-instance" xsi:noNamespaceSchemaLocation="http://sumo.dlr.de/xsd/routes_file.xsd">
    <vType accel="0.8" decel="4.0" sigma="0.5" length="7.0" minGap="2.5" maxSpeed="30.0" guiShape="truck" color="0,0,255" id="jeepney"/>
    <vehicle id="deast_luna_0.0" depart="0.00">
        <route edges="east_luna_0 south_roa_1 west_recto_2 north_osmena_1 north_osmena_2 north_osmena_3"/>
    </vehicle>
    <vehicle id="deast_luna_1.0" depart="0.00">
        <route edges="east_luna_1 east_luna_2"/>
    </vehicle>
    <vehicle id="deast_recto_0.0" depart="0.00">
        <route edges="east_recto_0 east_recto_1 east_recto_2 east_recto_3"/>
    </vehicle>
    <vehicle id="deast_recto_1.0" depart="0.00">
        <route edges="east_recto_1 east_recto_2 east_recto_3"/>
    </vehicle>
    <vehicle id="deast_recto_2.0" depart="0.00">
        <route edges="east_recto_2 east_recto_3"/>
    </vehicle>
    <vehicle id="dnorth_corrales_0.0" depart="0.00">
        <route edges="north_corrales_0 north_corrales_1 north_corrales_2"/>
    </vehicle>
    <vehicle id="dnorth_corrales_1.0" depart="0.00">
        <route edges="north_corrales_1 north_corrales_2"/>
    </vehicle>
    <vehicle id="dnorth_osmena_0.0" depart="0.00">
        <route edges="north_osmena_0 north_osmena_1 north_osmena_2 north_osmena_3"/>
    </vehicle>
    <vehicle id="dnorth_osmena_1.0" depart="0.00">
        <route edges="north_osmena_1 north_osmena_2 north_osmena_3"/>
    </vehicle>
    <vehicle id="dnorth_osmena_2.0" depart="0.00">
        <route edges="north_osmena_2 east_luna_0 east_luna_1 east_luna_2"/>
    </vehicle>
    <vehicle id="dnorth_roa_0.0" depart="0.00">
        <route edges="north_roa_0 north_roa_1"/>
    </vehicle>
    <vehicle id="dsouth_corrales_0.0" depart="0.00">
        <route edges="south_corrales_0 south_corrales_1 west_recto_1 west_recto_2 west_recto_3"/>
    </vehicle>
    <vehicle id="dsouth_corrales_1.0" depart="0.00">
        <route edges="south_corrales_1 south_corrales_2"/>
    </vehicle>
    <vehicle id="dsouth_osmena_0.0" depart="0.00">
        <route edges="south_osmena_0 south_osmena_1 south_osmena_2 east_recto_1 east_recto_2 east_recto_3"/>
    </vehicle>
    <vehicle id="dsouth_osmena_1.0" depart="0.00">
        <route edges="south_osmena_1 west_florentino_0"/>
    </vehicle>
    <vehicle id="dsouth_osmena_2.0" depart="0.00">
        <route edges="south_osmena_2 east_recto_1 east_recto_2 east_recto_3"/>
    </vehicle>
    <vehicle id="dsouth_roa_0.0" depart="0.00">
        <route edges="south_roa_0 east_luna_1 east_luna_2"/>
    </vehicle>
    <vehicle id="dsouth_roa_1.0" depart="0.00">
        <route edges="south_roa_1 west_recto_2 west_recto_3"/>
    </vehicle>
    <vehicle id="dwest_luna_1.0" depart="0.00">
        <route edges="west_luna_1 south_roa_1 west_recto_2 south_osmena_3"/>
    </vehicle>
    <vehicle id="dwest_recto_0.0" depart="0.00">
        <route edges="west_recto_0 west_recto_1 west_recto_2 west_recto_3"/>
    </vehicle>
    <vehicle id="dwest_recto_1.0" depart="0.00">
        <route edges="west_recto_1 north_roa_0 north_roa_1"/>
    </vehicle>
    <vehicle id="dwest_recto_2.0" depart="0.00">
        <route edges="west_recto_2 west_recto_3"/>
    </vehicle>
    <vehicle id="dwest_recto_0.1" depart="27.91">
        <route edges="west_recto_0 west_recto_1 west_recto_2 west_recto_3"/>
    </vehicle>
    <vehicle id="dwest_recto_2.1" depart="30.77">
        <route edges="west_recto_2 west_recto_3"/>
    </vehicle>
    <vehicle id="deast_recto_2.1" depart="36.73">
        <route edges="east_recto_2 east_recto_3"/>
    </vehicle>
    <vehicle id="dwest_recto_1.1" depart="42.35">
        <route edges="west_recto_1 west_recto_2 west_recto_3"/>
    </vehicle>
    <vehicle id="deast_recto_0.1" depart="42.86">
        <route edges="east_recto_0 east_recto_1 east_recto_2 east_recto_3"/>
    </vehicle>
    <vehicle id="deast_recto_1.1" depart="48.65">
        <route edges="east_recto_1 east_recto_2 east_recto_3"/>
    </vehicle>
    <vehicle id="dwest_recto_0.2" depart="55.81">
        <route edges="west_recto_0 north_corrales_1 north_corrales_2"/>
    </vehicle>
    <vehicle id="dwest_recto_2.2" depart="61.54">
        <route edges="west_recto_2 west_recto_3"/>
    </vehicle>
    <vehicle id="deast_recto_2.2" depart="73.47">
        <route edges="east_recto_2 north_corrales_1 north_corrales_2"/>
    </vehicle>
    <vehicle id="dwest_recto_0.3" depart="83.72">
        <route edges="west_recto_0 west_recto_1 west_recto_2 west_recto_3"/>
    </vehicle>
    <vehicle id="dwest_recto_1.2" depart="84.70">
        <route edges="west_recto_1 west_recto_2 north_osmena_1 north_osmena_2 east_luna_0 east_luna_1 east_luna_2"/>
    </vehicle>
    <vehicle id="deast_recto_0.2" depart="85.71">
        <route edges="east_recto_0 east_recto_1 east_recto_2 east_recto_3"/>
    </vehicle>
    <vehicle id="dsouth_corrales_1.1" depart="85.71">
        <route edges="south_corrales_1 south_corrales_2"/>
    </vehicle>
    <vehicle id="dwest_recto_2.3" depart="92.31">
        <route edges="west_recto_2 south_osmena_3"/>
    </vehicle>
    <vehicle id="dnorth_corrales_0.1" depart="94.74">
        <route edges="north_corrales_0 north_corrales_1 north_corrales_2"/>
    </vehicle>
    <vehicle id="deast_recto_1.2" depart="97.30">
        <route edges="east_recto_1 east_recto_2 east_recto_3"/>
    </vehicle>
    <vehicle id="dsouth_osmena_2.1" depart="109.09">
        <route edges="south_osmena_2 south_osmena_3"/>
    </vehicle>
    <vehicle id="deast_recto_2.3" depart="110.20">
        <route edges="east_recto_2 east_recto_3"/>
    </vehicle>
    <vehicle id="dwest_recto_0.4" depart="111.62">
        <route edges="west_recto_0 west_recto_1 west_recto_2 west_recto_3"/>
    </vehicle>
    <vehicle id="dwest_recto_2.4" depart="123.08">
        <route edges="west_recto_2 west_recto_3"/>
    </vehicle>
    <vehicle id="dwest_recto_1.3" depart="127.06">
        <route edges="west_recto_1 north_roa_0 north_roa_1"/>
    </vehicle>
    <vehicle id="deast_recto_0.3" depart="128.57">
        <route edges="east_recto_0 east_recto_1 east_recto_2 east_recto_3"/>
    </vehicle>
    <vehicle id="dwest_recto_0.5" depart="139.53">
        <route edges="west_recto_0 west_recto_1 west_recto_2 west_recto_3"/>
    </vehicle>
    <vehicle id="deast_recto_1.3" depart="145.94">
        <route edges="east_recto_1 east_recto_2 east_recto_3"/>
    </vehicle>
    <vehicle id="deast_recto_2.4" depart="146.94">
        <route edges="east_recto_2 north_corrales_1 north_corrales_2"/>
    </vehicle>
    <vehicle id="dwest_recto_2.5" depart="153.85">
        <route edges="west_recto_2 west_recto_3"/>
    </vehicle>
    <vehicle id="dwest_recto_0.6" depart="167.44">
        <route edges="west_recto_0 west_recto_1 west_recto_2 west_recto_3"/>
    </vehicle>
    <vehicle id="dwest_recto_1.4" depart="169.41">
        <route edges="west_recto_1 west_recto_2 north_osmena_1 north_osmena_2 north_osmena_3"/>
    </vehicle>
    <vehicle id="deast_recto_0.4" depart="171.43">
        <route edges="east_recto_0 east_recto_1 east_recto_2 east_recto_3"/>
    </vehicle>
    <vehicle id="dsouth_corrales_1.2" depart="171.43">
        <route edges="south_corrales_1 east_recto_3"/>
    </vehicle>
    <vehicle id="deast_recto_2.5" depart="183.67">
        <route edges="east_recto_2 east_recto_3"/>
    </vehicle>
    <vehicle id="dwest_recto_2.6" depart="184.61">
        <route edges="west_recto_2 south_osmena_3"/>
    </vehicle>
    <vehicle id="dnorth_corrales_0.2" depart="189.47">
        <route edges="north_corrales_0 west_recto_1 west_recto_2 west_recto_3"/>
    </vehicle>
    <vehicle id="dnorth_osmena_0.1" depart="189.47">
        <route edges="north_osmena_0 east_recto_1 east_recto_2 east_recto_3"/>
    </vehicle>
    <vehicle id="deast_recto_1.4" depart="194.59">
        <route edges="east_recto_1 east_recto_2 north_corrales_1 north_corrales_2"/>
    </vehicle>
    <vehicle id="dwest_recto_0.7" depart="195.34">
        <route edges="west_recto_0 west_recto_1 west_recto_2 west_recto_3"/>
    </vehicle>
    <vehicle id="dwest_recto_1.5" depart="211.76">
        <route edges="west_recto_1 west_recto_2 west_recto_3"/>
    </vehicle>
    <vehicle id="deast_recto_0.5" depart="214.29">
        <route edges="east_recto_0 east_recto_1 east_recto_2 east_recto_3"/>
    </vehicle>
    <vehicle id="dwest_recto_2.7" depart="215.38">
        <route edges="west_recto_2 west_recto_3"/>
    </vehicle>
    <vehicle id="dsouth_osmena_2.2" depart="218.18">
        <route edges="south_osmena_2 south_osmena_3"/>
    </vehicle>
    <vehicle id="deast_recto_2.6" depart="220.40">
        <route edges="east_recto_2 east_recto_3"/>
    </vehicle>
    <vehicle id="dwest_recto_0.8" depart="223.25">
        <route edges="west_recto_0 west_recto_1 west_recto_2 west_recto_3"/>
    </vehicle>
    <vehicle id="deast_recto_1.5" depart="243.24">
        <route edges="east_recto_1 east_recto_2 east_recto_3"/>
    </vehicle>
    <vehicle id="dwest_recto_2.8" depart="246.15">
        <route edges="west_recto_2 north_osmena_1 north_osmena_2 north_osmena_3"/>
    </vehicle>
    <vehicle id="dwest_recto_0.9" depart="251.15">
        <route edges="west_recto_0 west_recto_1 west_recto_2 south_osmena_3"/>
    </vehicle>
    <vehicle id="dwest_recto_1.6" depart="254.11">
        <route edges="west_recto_1 west_recto_2 west_recto_3"/>
    </vehicle>
    <vehicle id="deast_recto_2.7" depart="257.14">
        <route edges="east_recto_2 east_recto_3"/>
    </vehicle>
    <vehicle id="deast_recto_0.6" depart="257.14">
        <route edges="east_recto_0 east_recto_1 east_recto_2 east_recto_3"/>
    </vehicle>
    <vehicle id="dsouth_corrales_1.3" depart="257.14">
        <route edges="south_corrales_1 west_recto_1 north_roa_0 north_roa_1"/>
    </vehicle>
    <vehicle id="dwest_recto_2.9" depart="276.92">
        <route edges="west_recto_2 west_recto_3"/>
    </vehicle>
    <vehicle id="dwest_recto_0.10" depart="279.06">
        <route edges="west_recto_0 west_recto_1 north_roa_0 west_luna_2 south_osmena_1 south_osmena_2 west_recto_3"/>
    </vehicle>
    <vehicle id="dnorth_corrales_0.3" depart="284.21">
        <route edges="north_corrales_0 north_corrales_1 north_corrales_2"/>
    </vehicle>
    <vehicle id="deast_recto_1.6" depart="291.89">
        <route edges="east_recto_1 east_recto_2 east_recto_3"/>
    </vehicle>
    <vehicle id="deast_recto_2.8" depart="293.87">
        <route edges="east_recto_2 north_corrales_1 north_corrales_2"/>
    </vehicle>
    <vehicle id="dwest_recto_1.7" depart="296.46">
        <route edges="west_recto_1 west_recto_2 south_osmena_3"/>
    </vehicle>
    <vehicle id="deast_recto_0.7" depart="300.00">
        <route edges="east_recto_0 east_recto_1 east_recto_2 east_recto_3"/>
    </vehicle>
    <vehicle id="dwest_recto_0.11" depart="306.97">
        <route edges="west_recto_0 west_recto_1 west_recto_2 west_recto_3"/>
    </vehicle>
    <vehicle id="dwest_recto_2.10" depart="307.69">
        <route edges="west_recto_2 south_osmena_3"/>
    </vehicle>
    <vehicle id="dsouth_osmena_2.3" depart="327.27">
        <route edges="south_osmena_2 south_osmena_3"/>
    </vehicle>
    <vehicle id="deast_recto_2.9" depart="330.61">
        <route edges="east_recto_2 east_recto_3"/>
    </vehicle>
    <vehicle id="dwest_recto_0.12" depart="334.87">
        <route edges="west_recto_0 west_recto_1 north_roa_0 east_luna_1 east_luna_2"/>
    </vehicle>
    <vehicle id="dwest_recto_2.11" depart="338.46">
        <route edges="west_recto_2 south_osmena_3"/>
    </vehicle>
    <vehicle id="dwest_recto_1.8" depart="338.82">
        <route edges="west_recto_1 north_roa_0 west_luna_2 north_osmena_3"/>
    </vehicle>
    <vehicle id="deast_recto_1.7" depart="340.54">
        <route edges="east_recto_1 east_recto_2 north_corrales_1 north_corrales_2"/>
    </vehicle>
    <vehicle id="deast_recto_0.8" depart="342.86">
        <route edges="east_recto_0 east_recto_1 east_recto_2 north_corrales_1 north_corrales_2"/>
    </vehicle>
    <vehicle id="dsouth_corrales_1.4" depart="342.86">
        <route edges="south_corrales_1 west_recto_1 west_recto_2 west_recto_3"/>
    </vehicle>
    <vehicle id="dwest_recto_0.13" depart="362.78">
        <route edges="west_recto_0 west_recto_1 north_roa_0 north_roa_1"/>
    </vehicle>
    <vehicle id="deast_recto_2.10" depart="367.34">
        <route edges="east_recto_2 east_recto_3"/>
    </vehicle>
    <vehicle id="dwest_recto_2.12" depart="369.23">
        <route edges="west_recto_2 west_recto_3"/>
    </vehicle>
    <vehicle id="dnorth_corrales_0.4" depart="378.94">
        <route edges="north_corrales_0 north_corrales_1 north_corrales_2"/>
    </vehicle>
    <vehicle id="dnorth_osmena_0.2" depart="378.95">
        <route edges="north_osmena_0 north_osmena_1 north_osmena_2 east_luna_0 north_roa_1"/>
    </vehicle>
    <vehicle id="dwest_recto_1.9" depart="381.17">
        <route edges="west_recto_1 north_roa_0 north_roa_1"/>
    </vehicle>
    <vehicle id="deast_recto_0.9" depart="385.71">
        <route edges="east_recto_0 east_recto_1 east_recto_2 east_recto_3"/>
    </vehicle>
    <vehicle id="deast_recto_1.8" depart="389.18">
        <route edges="east_recto_1 east_recto_2 south_corrales_2"/>
    </vehicle>
    <vehicle id="dwest_recto_0.14" depart="390.68">
        <route edges="west_recto_0 west_recto_1 north_roa_0 north_roa_1"/>
    </vehicle>
    <vehicle id="dwest_recto_2.13" depart="400.00">
        <route edges="west_recto_2 north_osmena_1 north_osmena_2 east_luna_0 east_luna_1 east_luna_2"/>
    </vehicle>
    <vehicle id="dwest_luna_1.1" depart="400.00">
        <route edges="west_luna_1 west_luna_2 north_osmena_3"/>
    </vehicle>
    <vehicle id="deast_recto_2.11" depart="404.07">
        <route edges="east_recto_2 north_corrales_1 north_corrales_2"/>
    </vehicle>
    <vehicle id="dwest_recto_0.15" depart="418.59">
        <route edges="west_recto_0 west_recto_1 west_recto_2 south_osmena_3"/>
    </vehicle>
    <vehicle id="dwest_recto_1.10" depart="423.52">
        <route edges="west_recto_1 west_recto_2 west_recto_3"/>
    </vehicle>
    <vehicle id="deast_recto_0.10" depart="428.57">
        <route edges="east_recto_0 east_recto_1 east_recto_2 east_recto_3"/>
    </vehicle>
    <vehicle id="dsouth_corrales_1.5" depart="428.57">
        <route edges="south_corrales_1 west_recto_1 west_recto_2 north_osmena_1 north_osmena_2 north_osmena_3"/>
    </vehicle>
    <vehicle id="dwest_recto_2.14" depart="430.77">
        <route edges="west_recto_2 north_osmena_1 north_osmena_2 east_luna_0 south_roa_1 east_recto_2 east_recto_3"/>
    </vehicle>
    <vehicle id="dsouth_osmena_2.4" depart="436.36">
        <route edges="south_osmena_2 east_recto_1 east_recto_2 east_recto_3"/>
    </vehicle>
    <vehicle id="deast_recto_1.9" depart="437.83">
        <route edges="east_recto_1 east_recto_2 east_recto_3"/>
    </vehicle>
    <vehicle id="deast_recto_2.12" depart="440.81">
        <route edges="east_recto_2 east_recto_3"/>
    </vehicle>
    <vehicle id="dwest_recto_0.16" depart="446.50">
        <route edges="west_recto_0 west_recto_1 west_recto_2 west_recto_3"/>
    </vehicle>
    <vehicle id="dwest_recto_2.15" depart="461.54">
        <route edges="west_recto_2 west_recto_3"/>
    </vehicle>
    <vehicle id="dwest_recto_1.11" depart="465.87">
        <route edges="west_recto_1 west_recto_2 west_recto_3"/>
    </vehicle>
    <vehicle id="deast_recto_0.11" depart="471.43">
        <route edges="east_recto_0 north_osmena_1 north_osmena_2 east_luna_0 east_luna_1 east_luna_2"/>
    </vehicle>
    <vehicle id="dnorth_corrales_0.5" depart="473.68">
        <route edges="north_corrales_0 north_corrales_1 north_corrales_2"/>
    </vehicle>
    <vehicle id="dwest_recto_0.17" depart="474.40">
        <route edges="west_recto_0 west_recto_1 west_recto_2 west_recto_3"/>
    </vehicle>
    <vehicle id="deast_recto_2.13" depart="477.54">
        <route edges="east_recto_2 east_recto_3"/>
    </vehicle>
    <vehicle id="deast_recto_1.10" depart="486.48">
        <route edges="east_recto_1 east_recto_2 east_recto_3"/>
    </vehicle>
    <vehicle id="dwest_recto_2.16" depart="492.30">
        <route edges="west_recto_2 north_osmena_1 north_osmena_2 north_osmena_3"/>
    </vehicle>
    <vehicle id="dwest_recto_0.18" depart="502.31">
        <route edges="west_recto_0 west_recto_1 west_recto_2 west_recto_3"/>
    </vehicle>
    <vehicle id="dwest_recto_1.12" depart="508.22">
        <route edges="west_recto_1 north_roa_0 north_roa_1"/>
    </vehicle>
    <vehicle id="deast_recto_2.14" depart="514.28">
        <route edges="east_recto_2 east_recto_3"/>
    </vehicle>
    <vehicle id="deast_recto_0.12" depart="514.28">
        <route edges="east_recto_0 east_recto_1 east_recto_2 east_recto_3"/>
    </vehicle>
    <vehicle id="dsouth_corrales_1.6" depart="514.28">
        <route edges="south_corrales_1 west_recto_1 west_recto_2 west_recto_3"/>
    </vehicle>
    <vehicle id="deast_luna_0.1" depart="514.29">
        <route edges="east_luna_0 east_luna_1 east_luna_2"/>
    </vehicle>
    <vehicle id="dsouth_roa_0.1" depart="514.29">
        <route edges="south_roa_0 south_roa_1 west_recto_2 west_recto_3"/>
    </vehicle>
    <vehicle id="dwest_recto_2.17" depart="523.07">
        <route edges="west_recto_2 west_recto_3"/>
    </vehicle>
    <vehicle id="dwest_recto_0.19" depart="530.21">
        <route edges="west_recto_0 west_recto_1 west_recto_2 west_recto_3"/>
    </vehicle>
    <vehicle id="deast_recto_1.11" depart="535.13">
        <route edges="east_recto_1 east_recto_2 south_corrales_2"/>
    </vehicle>
    <vehicle id="dsouth_osmena_2.5" depart="545.45">
        <route edges="south_osmena_2 west_recto_3"/>
    </vehicle>
    <vehicle id="dwest_recto_1.13" depart="550.58">
        <route edges="west_recto_1 west_recto_2 west_recto_3"/>
    </vehicle>
    <vehicle id="deast_recto_2.15" depart="551.01">
        <route edges="east_recto_2 east_recto_3"/>
    </vehicle>
    <vehicle id="dwest_recto_2.18" depart="553.84">
        <route edges="west_recto_2 west_recto_3"/>
    </vehicle>
    <vehicle id="deast_recto_0.13" depart="557.14">
        <route edges="east_recto_0 north_osmena_1 north_osmena_2 north_osmena_3"/>
    </vehicle>
    <vehicle id="dwest_recto_0.20" depart="558.12">
        <route edges="west_recto_0 north_corrales_1 north_corrales_2"/>
    </vehicle>
    <vehicle id="dnorth_corrales_0.6" depart="568.42">
        <route edges="north_corrales_0 north_corrales_1 north_corrales_2"/>
    </vehicle>
    <vehicle id="dnorth_osmena_0.3" depart="568.42">
        <route edges="north_osmena_0 west_recto_3"/>
    </vehicle>
    <vehicle id="deast_recto_1.12" depart="583.78">
        <route edges="east_recto_1 east_recto_2 east_recto_3"/>
    </vehicle>
    <vehicle id="dwest_recto_2.19" depart="584.61">
        <route edges="west_recto_2 north_osmena_1 north_osmena_2 east_luna_0 east_luna_1 east_luna_2"/>
    </vehicle>
    <vehicle id="dwest_recto_0.21" depart="586.03">
        <route edges="west_recto_0 west_recto_1 west_recto_2 west_recto_3"/>
    </vehicle>
    <vehicle id="deast_recto_2.16" depart="587.74">
        <route edges="east_recto_2 east_recto_3"/>
    </vehicle>
    <vehicle id="dwest_recto_1.14" depart="592.93">
        <route edges="west_recto_1 west_recto_2 west_recto_3"/>
    </vehicle>
    <vehicle id="deast_recto_0.14" depart="600.00">
        <route edges="east_recto_0 east_recto_1 east_recto_2 east_recto_3"/>
    </vehicle>
    <vehicle id="dsouth_corrales_1.7" depart="600.00">
        <route edges="south_corrales_1 south_corrales_2"/>
    </vehicle>
    <vehicle id="dwest_recto_0.22" depart="613.93">
        <route edges="west_recto_0 west_recto_1 north_roa_0 north_roa_1"/>
    </vehicle>
    <vehicle id="dwest_recto_2.20" depart="615.38">
        <route edges="west_recto_2 west_recto_3"/>
    </vehicle>
    <vehicle id="deast_recto_2.17" depart="624.48">
        <route edges="east_recto_2 east_recto_3"/>
    </vehicle>
    <vehicle id="deast_recto_1.13" depart="632.42">
        <route edges="east_recto_1 east_recto_2 east_recto_3"/>
    </vehicle>
    <vehicle id="dwest_recto_1.15" depart="635.28">
        <route edges="west_recto_1 west_recto_2 west_recto_3"/>
    </vehicle>
    <vehicle id="dwest_recto_0.23" depart="641.84">
        <route edges="west_recto_0 west_recto_1 west_recto_2 west_recto_3"/>
    </vehicle>
    <vehicle id="deast_recto_0.15" depart="642.86">
        <route edges="east_recto_0 east_recto_1 east_recto_2 east_recto_3"/>
    </vehicle>
    <vehicle id="dwest_recto_2.21" depart="646.15">
        <route edges="west_recto_2 north_osmena_1 north_osmena_2 north_osmena_3"/>
    </vehicle>
    <vehicle id="dsouth_osmena_2.6" depart="654.54">
        <route edges="south_osmena_2 west_recto_3"/>
    </vehicle>
    <vehicle id="deast_recto_2.18" depart="661.21">
        <route edges="east_recto_2 east_recto_3"/>
    </vehicle>
    <vehicle id="dnorth_corrales_0.7" depart="663.15">
        <route edges="north_corrales_0 north_corrales_1 north_corrales_2"/>
    </vehicle>
    <vehicle id="dwest_recto_0.24" depart="669.74">
        <route edges="west_recto_0 west_recto_1 west_recto_2 west_recto_3"/>
    </vehicle>
    <vehicle id="dwest_recto_2.22" depart="676.92">
        <route edges="west_recto_2 west_recto_3"/>
    </vehicle>
    <vehicle id="dwest_recto_1.16" depart="677.63">
        <route edges="west_recto_1 west_recto_2 west_recto_3"/>
    </vehicle>
    <vehicle id="deast_recto_1.14" depart="681.07">
        <route edges="east_recto_1 east_recto_2 east_recto_3"/>
    </vehicle>
    <vehicle id="deast_recto_0.16" depart="685.71">
        <route edges="east_recto_0 east_recto_1 east_recto_2 east_recto_3"/>
    </vehicle>
    <vehicle id="dsouth_corrales_1.8" depart="685.71">
        <route edges="south_corrales_1 west_recto_1 west_recto_2 west_recto_3"/>
    </vehicle>
    <vehicle id="dwest_recto_0.25" depart="697.65">
        <route edges="west_recto_0 west_recto_1 north_roa_0 north_roa_1"/>
    </vehicle>
    <vehicle id="deast_recto_2.19" depart="697.95">
        <route edges="east_recto_2 east_recto_3"/>
    </vehicle>
    <vehicle id="dwest_recto_2.23" depart="707.69">
        <route edges="west_recto_2 north_osmena_1 north_osmena_2 north_osmena_3"/>
    </vehicle>
    <vehicle id="dwest_recto_1.17" depart="719.98">
        <route edges="west_recto_1 north_roa_0 east_luna_1 east_luna_2"/>
    </vehicle>
    <vehicle id="dwest_recto_0.26" depart="725.56">
        <route edges="west_recto_0 west_recto_1 west_recto_2 west_recto_3"/>
    </vehicle>
    <vehicle id="deast_recto_0.17" depart="728.57">
        <route edges="east_recto_0 east_recto_1 east_recto_2 east_recto_3"/>
    </vehicle>
    <vehicle id="deast_recto_1.15" depart="729.72">
        <route edges="east_recto_1 east_recto_2 east_recto_3"/>
    </vehicle>
    <vehicle id="deast_recto_2.20" depart="734.68">
        <route edges="east_recto_2 east_recto_3"/>
    </vehicle>
    <vehicle id="dwest_recto_2.24" depart="738.46">
        <route edges="west_recto_2 west_recto_3"/>
    </vehicle>
    <vehicle id="dwest_recto_0.27" depart="753.46">
        <route edges="west_recto_0 west_recto_1 west_recto_2 west_recto_3"/>
    </vehicle>
    <vehicle id="dnorth_corrales_0.8" depart="757.89">
        <route edges="north_corrales_0 north_corrales_1 north_corrales_2"/>
    </vehicle>
    <vehicle id="dnorth_osmena_0.4" depart="757.89">
        <route edges="north_osmena_0 north_osmena_1 north_osmena_2 north_osmena_3"/>
    </vehicle>
    <vehicle id="dwest_recto_1.18" depart="762.34">
        <route edges="west_recto_1 north_roa_0 north_roa_1"/>
    </vehicle>
    <vehicle id="dsouth_osmena_2.7" depart="763.63">
        <route edges="south_osmena_2 east_recto_1 east_recto_2 north_corrales_1 north_corrales_2"/>
    </vehicle>
    <vehicle id="dwest_recto_2.25" depart="769.23">
        <route edges="west_recto_2 west_recto_3"/>
    </vehicle>
    <vehicle id="deast_recto_2.21" depart="771.41">
        <route edges="east_recto_2 east_recto_3"/>
    </vehicle>
    <vehicle id="deast_recto_0.18" depart="771.43">
        <route edges="east_recto_0 east_recto_1 east_recto_2 east_recto_3"/>
    </vehicle>
    <vehicle id="dsouth_corrales_1.9" depart="771.43">
        <route edges="south_corrales_1 east_recto_3"/>
    </vehicle>
    <vehicle id="deast_recto_1.16" depart="778.37">
        <route edges="east_recto_1 east_recto_2 east_recto_3"/>
    </vehicle>
    <vehicle id="dwest_recto_0.28" depart="781.37">
        <route edges="west_recto_0 west_recto_1 west_recto_2 west_recto_3"/>
    </vehicle>
    <vehicle id="dwest_recto_2.26" depart="799.99">
        <route edges="west_recto_2 west_recto_3"/>
    </vehicle>
    <vehicle id="dwest_luna_1.2" depart="800.00">
        <route edges="west_luna_1 west_luna_2 north_osmena_3"/>
    </vehicle>
    <vehicle id="dwest_recto_1.19" depart="804.69">
        <route edges="west_recto_1 west_recto_2 west_recto_3"/>
    </vehicle>
    <vehicle id="deast_recto_2.22" depart="808.15">
        <route edges="east_recto_2 north_corrales_1 north_corrales_2"/>
    </vehicle>
    <vehicle id="dwest_recto_0.29" depart="809.27">
        <route edges="west_recto_0 west_recto_1 west_recto_2 west_recto_3"/>
    </vehicle>
    <vehicle id="deast_recto_0.19" depart="814.28">
        <route edges="east_recto_0 east_recto_1 east_recto_2 east_recto_3"/>
    </vehicle>
    <vehicle id="deast_recto_1.17" depart="827.02">
        <route edges="east_recto_1 east_recto_2 east_recto_3"/>
    </vehicle>
    <vehicle id="dwest_recto_2.27" depart="830.76">
        <route edges="west_recto_2 west_recto_3"/>
    </vehicle>
    <vehicle id="dwest_recto_0.30" depart="837.18">
        <route edges="west_recto_0 west_recto_1 west_recto_2 south_osmena_3"/>
    </vehicle>
    <vehicle id="deast_recto_2.23" depart="844.88">
        <route edges="east_recto_2 east_recto_3"/>
    </vehicle>
    <vehicle id="dwest_recto_1.20" depart="847.04">
        <route edges="west_recto_1 west_recto_2 west_recto_3"/>
    </vehicle>
    <vehicle id="dnorth_corrales_0.9" depart="852.62">
        <route edges="north_corrales_0 north_corrales_1 north_corrales_2"/>
    </vehicle>
    <vehicle id="deast_recto_0.20" depart="857.14">
        <route edges="east_recto_0 east_recto_1 east_recto_2 east_recto_3"/>
    </vehicle>
    <vehicle id="dsouth_corrales_1.10" depart="857.14">
        <route edges="south_corrales_1 south_corrales_2"/>
    </vehicle>
    <vehicle id="dwest_recto_2.28" depart="861.53">
        <route edges="west_recto_2 west_recto_3"/>
    </vehicle>
    <vehicle id="dwest_recto_0.31" depart="865.09">
        <route edges="west_recto_0 west_recto_1 west_recto_2 west_recto_3"/>
    </vehicle>
    <vehicle id="dsouth_osmena_2.8" depart="872.72">
        <route edges="south_osmena_2 south_osmena_3"/>
    </vehicle>
    <vehicle id="deast_recto_1.18" depart="875.66">
        <route edges="east_recto_1 east_recto_2 east_recto_3"/>
    </vehicle>
    <vehicle id="deast_recto_2.24" depart="881.62">
        <route edges="east_recto_2 east_recto_3"/>
    </vehicle>
    <vehicle id="dwest_recto_1.21" depart="889.39">
        <route edges="west_recto_1 west_recto_2 west_recto_3"/>
    </vehicle>
    <vehicle id="dwest_recto_2.29" depart="892.30">
        <route edges="west_recto_2 west_recto_3"/>
    </vehicle>
    <vehicle id="dwest_recto_0.32" depart="892.99">
        <route edges="west_recto_0 west_recto_1 west_recto_2 south_osmena_3"/>
    </vehicle>
    <vehicle id="deast_recto_0.21" depart="900.00">
        <route edges="east_recto_0 east_recto_1 east_recto_2 east_recto_3"/>
    </vehicle>
    <vehicle id="dnorth_osmena_2.1" depart="900.00">
        <route edges="north_osmena_2 north_osmena_3"/>
    </vehicle>
    <vehicle id="dnorth_roa_0.1" depart="900.00">
        <route edges="north_roa_0 north_roa_1"/>
    </vehicle>
    <vehicle id="dsouth_osmena_1.1" depart="900.00">
        <route edges="south_osmena_1 south_osmena_2 south_osmena_3"/>
    </vehicle>
    <vehicle id="deast_recto_2.25" depart="918.35">
        <route edges="east_recto_2 east_recto_3"/>
    </vehicle>
    <vehicle id="dwest_recto_0.33" depart="920.90">
        <route edges="west_recto_0 west_recto_1 north_roa_0 west_luna_2 south_osmena_1 south_osmena_2 east_recto_1 east_recto_2 north_corrales_1 north_corrales_2"/>
    </vehicle>
    <vehicle id="dwest_recto_2.30" depart="923.07">
        <route edges="west_recto_2 west_recto_3"/>
    </vehicle>
    <vehicle id="deast_recto_1.19" depart="924.31">
        <route edges="east_recto_1 east_recto_2 north_corrales_1 north_corrales_2"/>
    </vehicle>
    <vehicle id="dwest_recto_1.22" depart="931.74">
        <route edges="west_recto_1 west_recto_2 west_recto_3"/>
    </vehicle>
    <vehicle id="deast_recto_0.22" depart="942.85">
        <route edges="east_recto_0 east_recto_1 east_recto_2 east_recto_3"/>
    </vehicle>
    <vehicle id="dsouth_corrales_1.11" depart="942.85">
        <route edges="south_corrales_1 south_corrales_2"/>
    </vehicle>
    <vehicle id="dnorth_corrales_0.10" depart="947.36">