<?xml version="1.0" encoding="UTF-8"?>

<!-- generated on 2023-03-30 00:08:52 by Eclipse SUMO jtrrouter Version 1.15.0
<configuration xmlns:xsi="http://www.w3.org/2001/XMLSchema-instance" xsi:noNamespaceSchemaLocation="http://sumo.dlr.de/xsd/jtrrouterConfiguration.xsd">

    <input>
        <net-file value="D:\School Documents\Thesis\DQL_AveEntLumRei\Simulation_Environment\Main MADDPG\osm.net.xml"/>
        <route-files value="flows.tmp.xml"/>
        <turn-ratio-files value="Route Files\largeTrucks.xml"/>
    </input>

    <output>
        <output-file value="Simulation_Environment\Main MADDPG\Final Route Folder\largeTrucks_route.xml"/>
    </output>

    <processing>
        <accept-all-destinations value="true"/>
    </processing>

</configuration>
-->

<routes xmlns:xsi="http://www.w3.org/2001/XMLSchema-instance" xsi:noNamespaceSchemaLocation="http://sumo.dlr.de/xsd/routes_file.xsd">
    <vType accel="0.4" decel="3.0" sigma="0.5" length="12.0" minGap="2.5" maxSpeed="30.0" guiShape="truck" color="0,0,255" id="largeTrucks"/>
    <vehicle id="eeast_florentino_0.0" depart="0.00">
        <route edges="east_florentino_0 south_osmena_2 south_osmena_3"/>
    </vehicle>
    <vehicle id="eeast_luna_0.0" depart="0.00">
        <route edges="east_luna_0 east_luna_1 east_luna_2"/>
    </vehicle>
    <vehicle id="eeast_luna_1.0" depart="0.00">
        <route edges="east_luna_1 east_luna_2"/>
    </vehicle>
    <vehicle id="eeast_recto_0.0" depart="0.00">
        <route edges="east_recto_0 east_recto_1 east_recto_2 south_corrales_2"/>
    </vehicle>
    <vehicle id="eeast_recto_1.0" depart="0.00">
        <route edges="east_recto_1 east_recto_2 east_recto_3"/>
    </vehicle>
    <vehicle id="enorth_corrales_1.0" depart="0.00">
        <route edges="north_corrales_1 north_corrales_2"/>
    </vehicle>
    <vehicle id="enorth_osmena_0.0" depart="0.00">
        <route edges="north_osmena_0 north_osmena_1 north_osmena_2 north_osmena_3"/>
    </vehicle>
    <vehicle id="enorth_osmena_1.0" depart="0.00">
        <route edges="north_osmena_1 north_osmena_2 north_osmena_3"/>
    </vehicle>
    <vehicle id="enorth_osmena_2.0" depart="0.00">
        <route edges="north_osmena_2 east_luna_0 north_roa_1"/>
    </vehicle>
    <vehicle id="enorth_roa_0.0" depart="0.00">
        <route edges="north_roa_0 north_roa_1"/>
    </vehicle>
    <vehicle id="esouth_corrales_0.0" depart="0.00">
        <route edges="south_corrales_0 south_corrales_1 west_recto_1 west_recto_2 west_recto_3"/>
    </vehicle>
    <vehicle id="esouth_osmena_0.0" depart="0.00">
        <route edges="south_osmena_0 south_osmena_1 west_florentino_0"/>
    </vehicle>
    <vehicle id="esouth_osmena_1.0" depart="0.00">
        <route edges="south_osmena_1 south_osmena_2 west_recto_3"/>
    </vehicle>
    <vehicle id="esouth_osmena_2.0" depart="0.00">
        <route edges="south_osmena_2 south_osmena_3"/>
    </vehicle>
    <vehicle id="esouth_roa_0.0" depart="0.00">
        <route edges="south_roa_0 south_roa_1 west_recto_2 north_osmena_1 north_osmena_2 north_osmena_3"/>
    </vehicle>
    <vehicle id="esouth_roa_1.0" depart="0.00">
        <route edges="south_roa_1 west_recto_2 west_recto_3"/>
    </vehicle>
    <vehicle id="ewest_luna_0.0" depart="0.00">
        <route edges="west_luna_0 north_corrales_2"/>
    </vehicle>
    <vehicle id="ewest_luna_1.0" depart="0.00">
        <route edges="west_luna_1 west_luna_2 north_osmena_3"/>
    </vehicle>
    <vehicle id="ewest_luna_2.0" depart="0.00">
        <route edges="west_luna_2 north_osmena_3"/>
    </vehicle>
    <vehicle id="ewest_recto_1.0" depart="0.00">
        <route edges="west_recto_1 north_roa_0 north_roa_1"/>
    </vehicle>
    <vehicle id="ewest_recto_2.0" depart="0.00">
        <route edges="west_recto_2 west_recto_3"/>
    </vehicle>
    <vehicle id="ewest_recto_1.1" depart="35.29">
        <route edges="west_recto_1 west_recto_2 south_osmena_3"/>
    </vehicle>
    <vehicle id="ewest_recto_1.2" depart="70.59">
        <route edges="west_recto_1 north_roa_0 north_roa_1"/>
    </vehicle>
    <vehicle id="ewest_recto_2.1" depart="85.71">
        <route edges="west_recto_2 south_osmena_3"/>
    </vehicle>
    <vehicle id="ewest_recto_1.3" depart="105.88">
        <route edges="west_recto_1 west_recto_2 north_osmena_1 north_osmena_2 north_osmena_3"/>
    </vehicle>
    <vehicle id="eeast_recto_0.1" depart="116.13">
        <route edges="east_recto_0 east_recto_1 east_recto_2 north_corrales_1 north_corrales_2"/>
    </vehicle>
    <vehicle id="eeast_recto_1.1" depart="133.33">
        <route edges="east_recto_1 east_recto_2 east_recto_3"/>
    </vehicle>
    <vehicle id="ewest_recto_1.4" depart="141.18">
        <route edges="west_recto_1 west_recto_2 south_osmena_3"/>
    </vehicle>
    <vehicle id="ewest_recto_2.2" depart="171.43">
        <route edges="west_recto_2 west_recto_3"/>
    </vehicle>
    <vehicle id="ewest_recto_1.5" depart="176.47">
        <route edges="west_recto_1 north_roa_0 north_roa_1"/>
    </vehicle>
    <vehicle id="ewest_recto_1.6" depart="211.76">
        <route edges="west_recto_1 north_roa_0 east_luna_1 east_luna_2"/>
    </vehicle>
    <vehicle id="eeast_recto_0.2" depart="232.26">
        <route edges="east_recto_0 east_recto_1 east_recto_2 south_corrales_2"/>
    </vehicle>
    <vehicle id="enorth_osmena_2.1" depart="240.00">
        <route edges="north_osmena_2 east_luna_0 south_roa_1 west_recto_2 west_recto_3"/>
    </vehicle>
    <vehicle id="ewest_recto_1.7" depart="247.06">
        <route edges="west_recto_1 north_roa_0 north_roa_1"/>
    </vehicle>
    <vehicle id="ewest_recto_2.3" depart="257.14">
        <route edges="west_recto_2 south_osmena_3"/>
    </vehicle>
    <vehicle id="eeast_recto_1.2" depart="266.67">
        <route edges="east_recto_1 east_recto_2 south_corrales_2"/>
    </vehicle>
    <vehicle id="ewest_recto_1.8" depart="282.35">
        <route edges="west_recto_1 north_roa_0 north_roa_1"/>
    </vehicle>
    <vehicle id="esouth_osmena_1.1" depart="300.00">
        <route edges="south_osmena_1 south_osmena_2 east_recto_1 east_recto_2 east_recto_3"/>
    </vehicle>
    <vehicle id="esouth_osmena_2.1" depart="300.00">
        <route edges="south_osmena_2 south_osmena_3"/>
    </vehicle>
    <vehicle id="ewest_recto_1.9" depart="317.65">
        <route edges="west_recto_1 west_recto_2 west_recto_3"/>
    </vehicle>
    <vehicle id="ewest_recto_2.4" depart="342.86">
        <route edges="west_recto_2 west_recto_3"/>
    </vehicle>
    <vehicle id="eeast_recto_0.3" depart="348.39">
        <route edges="east_recto_0 east_recto_1 east_recto_2 east_recto_3"/>
    </vehicle>
    <vehicle id="ewest_recto_1.10" depart="352.94">
        <route edges="west_recto_1 west_recto_2 west_recto_3"/>
    </vehicle>
    <vehicle id="eeast_luna_0.1" depart="360.00">
        <route edges="east_luna_0 east_luna_1 east_luna_2"/>
    </vehicle>
    <vehicle id="ewest_luna_1.1" depart="360.00">
        <route edges="west_luna_1 north_roa_1"/>
    </vehicle>
    <vehicle id="ewest_recto_1.11" depart="388.23">
        <route edges="west_recto_1 west_recto_2 west_recto_3"/>
    </vehicle>
    <vehicle id="eeast_recto_1.3" depart="400.00">
        <route edges="east_recto_1 east_recto_2 east_recto_3"/>
    </vehicle>
    <vehicle id="enorth_osmena_1.1" depart="400.00">
        <route edges="north_osmena_1 north_osmena_2 north_osmena_3"/>
    </vehicle>
    <vehicle id="ewest_recto_1.12" depart="423.53">
        <route edges="west_recto_1 west_recto_2 west_recto_3"/>
    </vehicle>
    <vehicle id="ewest_recto_2.5" depart="428.57">
        <route edges="west_recto_2 west_recto_3"/>
    </vehicle>
    <vehicle id="enorth_osmena_0.1" depart="450.00">
        <route edges="north_osmena_0 west_recto_3"/>
    </vehicle>
    <vehicle id="esouth_roa_0.1" depart="450.00">
        <route edges="south_roa_0 south_roa_1 west_recto_2 west_recto_3"/>
    </vehicle>
    <vehicle id="ewest_recto_1.13" depart="458.82">
        <route edges="west_recto_1 west_recto_2 north_osmena_1 north_osmena_2 north_osmena_3"/>
    </vehicle>
    <vehicle id="eeast_recto_0.4" depart="464.52">
        <route edges="east_recto_0 east_recto_1 east_recto_2 east_recto_3"/>
    </vehicle>
    <vehicle id="enorth_osmena_2.2" depart="480.00">
        <route edges="north_osmena_2 east_luna_0 north_roa_1"/>
    </vehicle>
    <vehicle id="ewest_recto_1.14" depart="494.12">
        <route edges="west_recto_1 north_roa_0 west_luna_2 north_osmena_3"/>
    </vehicle>
    <vehicle id="ewest_recto_2.6" depart="514.28">
        <route edges="west_recto_2 west_recto_3"/>
    </vehicle>
    <vehicle id="esouth_osmena_0.1" depart="514.29">
        <route edges="south_osmena_0 east_luna_0 east_luna_1 south_corrales_1 east_recto_3"/>
    </vehicle>
    <vehicle id="ewest_recto_1.15" depart="529.41">
        <route edges="west_recto_1 west_recto_2 south_osmena_3"/>
    </vehicle>
    <vehicle id="eeast_recto_1.4" depart="533.33">
        <route edges="east_recto_1 east_recto_2 east_recto_3"/>
    </vehicle>
    <vehicle id="ewest_recto_1.16" depart="564.70">
        <route edges="west_recto_1 west_recto_2 west_recto_3"/>
    </vehicle>
    <vehicle id="eeast_recto_0.5" depart="580.65">
        <route edges="east_recto_0 east_recto_1 east_recto_2 east_recto_3"/>
    </vehicle>
    <vehicle id="ewest_recto_1.17" depart="600.00">
        <route edges="west_recto_1 west_recto_2 west_recto_3"/>
    </vehicle>
    <vehicle id="ewest_recto_2.7" depart="600.00">
        <route edges="west_recto_2 west_recto_3"/>
    </vehicle>
    <vehicle id="esouth_corrales_0.1" depart="600.00">
        <route edges="south_corrales_0 south_corrales_1 east_recto_3"/>
    </vehicle>
    <vehicle id="esouth_osmena_1.2" depart="600.00">
        <route edges="south_osmena_1 south_osmena_2 south_osmena_3"/>
    </vehicle>
    <vehicle id="esouth_osmena_2.2" depart="600.00">
        <route edges="south_osmena_2 west_recto_3"/>
    </vehicle>
    <vehicle id="ewest_recto_1.18" depart="635.29">
        <route edges="west_recto_1 west_recto_2 north_osmena_1 west_florentino_0"/>
    </vehicle>
    <vehicle id="eeast_recto_1.5" depart="666.67">
        <route edges="east_recto_1 east_recto_2 east_recto_3"/>
    </vehicle>
    <vehicle id="ewest_recto_1.19" depart="670.59">
        <route edges="west_recto_1 west_recto_2 south_osmena_3"/>
    </vehicle>
    <vehicle id="ewest_recto_2.8" depart="685.71">
        <route edges="west_recto_2 west_recto_3"/>
    </vehicle>
    <vehicle id="eeast_recto_0.6" depart="696.77">
        <route edges="east_recto_0 east_recto_1 east_recto_2 east_recto_3"/>
    </vehicle>
    <vehicle id="ewest_recto_1.20" depart="705.88">
        <route edges="west_recto_1 north_roa_0 north_roa_1"/>
    </vehicle>
    <vehicle id="eeast_luna_0.2" depart="720.00">
        <route edges="east_luna_0 south_roa_1 west_recto_2 west_recto_3"/>
    </vehicle>
    <vehicle id="enorth_corrales_1.1" depart="720.00">
        <route edges="north_corrales_1 north_corrales_2"/>
    </vehicle>
    <vehicle id="enorth_osmena_2.3" depart="720.00">
        <route edges="north_osmena_2 north_osmena_3"/>
    </vehicle>
    <vehicle id="enorth_roa_0.1" depart="720.00">
        <route edges="north_roa_0 east_luna_1 south_corrales_1 east_recto_3"/>
    </vehicle>
    <vehicle id="ewest_luna_1.2" depart="720.00">
        <route edges="west_luna_1 south_roa_1 west_recto_2 west_recto_3"/>
    </vehicle>
    <vehicle id="ewest_recto_1.21" depart="741.17">
        <route edges="west_recto_1 west_recto_2 west_recto_3"/>
    </vehicle>
    <vehicle id="ewest_recto_2.9" depart="771.43">
        <route edges="west_recto_2 west_recto_3"/>
    </vehicle>
    <vehicle id="ewest_recto_1.22" depart="776.47">
        <route edges="west_recto_1 west_recto_2 west_recto_3"/>
    </vehicle>
    <vehicle id="eeast_recto_1.6" depart="800.00">
        <route edges="east_recto_1 east_recto_2 south_corrales_2"/>
    </vehicle>
    <vehicle id="enorth_osmena_1.2" depart="800.00">
        <route edges="north_osmena_1 north_osmena_2 north_osmena_3"/>
    </vehicle>
    <vehicle id="ewest_recto_1.23" depart="811.76">
        <route edges="west_recto_1 west_recto_2 west_recto_3"/>
    </vehicle>
    <vehicle id="eeast_recto_0.7" depart="812.90">
        <route edges="east_recto_0 east_recto_1 east_recto_2 south_corrales_2"/>
    </vehicle>
    <vehicle id="ewest_recto_1.24" depart="847.06">
        <route edges="west_recto_1 west_recto_2 south_osmena_3"/>
    </vehicle>
    <vehicle id="ewest_recto_2.10" depart="857.14">
        <route edges="west_recto_2 west_recto_3"/>
    </vehicle>
    <vehicle id="ewest_recto_1.25" depart="882.35">
        <route edges="west_recto_1 north_roa_0 east_luna_1 east_luna_2"/>
    </vehicle>
    <vehicle id="enorth_osmena_0.2" depart="900.00">
        <route edges="north_osmena_0 north_osmena_1 north_osmena_2 north_osmena_3"/>
    </vehicle>
    <vehicle id="esouth_osmena_1.3" depart="900.00">
        <route edges="south_osmena_1 south_osmena_2 east_recto_1 east_recto_2 east_recto_3"/>
    </vehicle>
    <vehicle id="esouth_osmena_2.3" depart="900.00">
        <route edges="south_osmena_2 east_recto_1 east_recto_2 north_corrales_1 north_corrales_2"/>
    </vehicle>
    <vehicle id="esouth_roa_0.2" depart="900.00">
        <route edges="south_roa_0 west_luna_2 south_osmena_1 south_osmena_2 south_osmena_3"/>
    </vehicle>
    <vehicle id="ewest_recto_1.26" depart="917.64">
        <route edges="west_recto_1 north_roa_0 north_roa_1"/>
    </vehicle>
    <vehicle id="eeast_recto_0.8" depart="929.03">
        <route edges="east_recto_0 east_recto_1 east_recto_2 east_recto_3"/>
    </vehicle>
    <vehicle id="eeast_recto_1.7" depart="933.33">
        <route edges="east_recto_1 east_recto_2 south_corrales_2"/>
    </vehicle>
    <vehicle id="ewest_recto_2.11" depart="942.85">
        <route edges="west_recto_2 west_recto_3"/>
    </vehicle>
    <vehicle id="ewest_recto_1.27" depart="952.94">
        <route edges="west_recto_1 north_roa_0 north_roa_1"/>
    </vehicle>
    <vehicle id="enorth_osmena_2.4" depart="960.00">
        <route edges="north_osmena_2 east_luna_0 east_luna_1 south_corrales_1 south_corrales_2"/>
    </vehicle>
    <vehicle id="ewest_recto_1.28" depart="988.23">
        <route edges="west_recto_1 west_recto_2 south_osmena_3"/>
    </vehicle>
    <vehicle id="ewest_recto_1.29" depart="1023.53">
        <route edges="west_recto_1 west_recto_2 west_recto_3"/>
    </vehicle>
    <vehicle id="ewest_recto_2.12" depart="1028.57">
        <route edges="west_recto_2 north_osmena_1 north_osmena_2 east_luna_0 east_luna_1 east_luna_2"/>
    </vehicle>
    <vehicle id="esouth_osmena_0.2" depart="1028.57">
        <route edges="south_osmena_0 south_osmena_1 west_florentino_0"/>
    </vehicle>
    <vehicle id="eeast_recto_0.9" depart="1045.16">
        <route edges="east_recto_0 north_osmena_1 north_osmena_2 north_osmena_3"/>
    </vehicle>
    <vehicle id="ewest_recto_1.30" depart="1058.82">
        <route edges="west_recto_1 west_recto_2 south_osmena_3"/>
    </vehicle>
    <vehicle id="eeast_recto_1.8" depart="1066.66">
        <route edges="east_recto_1 east_recto_2 south_corrales_2"/>
    </vehicle>
    <vehicle id="eeast_luna_0.3" depart="1080.00">
        <route edges="east_luna_0 east_luna_1 east_luna_2"/>
    </vehicle>
    <vehicle id="ewest_luna_1.3" depart="1080.00">
        <route edges="west_luna_1 west_luna_2 south_osmena_1 south_osmena_2 west_recto_3"/>
    </vehicle>
    <vehicle id="ewest_recto_1.31" depart="1094.11">
        <route edges="west_recto_1 west_recto_2 north_osmena_1 north_osmena_2 north_osmena_3"/>
    </vehicle>
    <vehicle id="ewest_recto_2.13" depart="1114.28">
        <route edges="west_recto_2 north_osmena_1 north_osmena_2 east_luna_0 south_roa_1 east_recto_2 east_recto_3"/>
    </vehicle>
    <vehicle id="ewest_recto_1.32" depart="1129.41">
        <route edges="west_recto_1 west_recto_2 north_osmena_1 north_osmena_2 north_osmena_3"/>
    </vehicle>
    <vehicle id="eeast_recto_0.10" depart="1161.29">
        <route edges="east_recto_0 east_recto_1 east_recto_2 east_recto_3"/>
    </vehicle>
    <vehicle id="ewest_recto_1.33" depart="1164.70">
        <route edges="west_recto_1 west_recto_2 west_recto_3"/>
    </vehicle>
    <vehicle id="ewest_recto_1.34" depart="1200.00">
        <route edges="west_recto_1 west_recto_2 west_recto_3"/>
    </vehicle>
    <vehicle id="ewest_recto_2.14" depart="1200.00">
        <route edges="west_recto_2 west_recto_3"/>
    </vehicle>
    <vehicle id="eeast_recto_1.9" depart="1200.00">
        <route edges="east_recto_1 east_recto_2 south_corrales_2"/>
    </vehicle>
    <vehicle id="eeast_luna_1.1" depart="1200.00">
        <route edges="east_luna_1 east_luna_2"/>
    </vehicle>
    <vehicle id="enorth_osmena_1.3" depart="1200.00">
        <route edges="north_osmena_1 north_osmena_2 north_osmena_3"/>
    </vehicle>
    <vehicle id="enorth_osmena_2.5" depart="1200.00">
        <route edges="north_osmena_2 north_osmena_3"/>
    </vehicle>
    <vehicle id="esouth_corrales_0.2" depart="1200.00">
        <route edges="south_corrales_0 south_corrales_1 east_recto_3"/>
    </vehicle>
    <vehicle id="esouth_osmena_1.4" depart="1200.00">
        <route edges="south_osmena_1 west_florentino_0"/>
    </vehicle>
    <vehicle id="esouth_osmena_2.4" depart="1200.00">
        <route edges="south_osmena_2 south_osmena_3"/>
    </vehicle>
    <vehicle id="ewest_recto_1.35" depart="1235.29">
        <route edges="west_recto_1 north_roa_0 west_luna_2 south_osmena_1 south_osmena_2 south_osmena_3"/>
    </vehicle>
    <vehicle id="ewest_recto_1.36" depart="1270.58">
        <route edges="west_recto_1 west_recto_2 west_recto_3"/>
    </vehicle>
    <vehicle id="eeast_recto_0.11" depart="1277.42">
        <route edges="east_recto_0 east_recto_1 east_recto_2 south_corrales_2"/>
    </vehicle>
    <vehicle id="ewest_recto_2.15" depart="1285.71">
        <route edges="west_recto_2 west_recto_3"/>
    </vehicle>
    <vehicle id="ewest_recto_1.37" depart="1305.88">
        <route edges="west_recto_1 west_recto_2 west_recto_3"/>
    </vehicle>
    <vehicle id="eeast_recto_1.10" depart="1333.33">
        <route edges="east_recto_1 east_recto_2 east_recto_3"/>
    </vehicle>
    <vehicle id="ewest_recto_1.38" depart="1341.17">
        <route edges="west_recto_1 west_recto_2 west_recto_3"/>
    </vehicle>
    <vehicle id="enorth_osmena_0.3" depart="1350.00">
        <route edges="north_osmena_0 west_recto_3"/>
    </vehicle>
    <vehicle id="esouth_roa_0.3" depart="1350.00">
        <route edges="south_roa_0 east_luna_1 south_corrales_1 south_corrales_2"/>
    </vehicle>
    <vehicle id="ewest_recto_2.16" depart="1371.42">
        <route edges="west_recto_2 west_recto_3"/>
    </vehicle>
    <vehicle id="ewest_recto_1.39" depart="1376.47">
        <route edges="west_recto_1 west_recto_2 west_recto_3"/>
    </vehicle>
    <vehicle id="eeast_recto_0.12" depart="1393.55">
        <route edges="east_recto_0 north_osmena_1 north_osmena_2 north_osmena_3"/>
    </vehicle>
    <vehicle id="ewest_recto_1.40" depart="1411.76">
        <route edges="west_recto_1 west_recto_2 west_recto_3"/>
    </vehicle>
    <vehicle id="eeast_luna_0.4" depart="1440.00">
        <route edges="east_luna_0 south_roa_1 west_recto_2 west_recto_3"/>
    </vehicle>
    <vehicle id="enorth_corrales_1.2" depart="1440.00">
        <route edges="north_corrales_1 north_corrales_2"/>
    </vehicle>
    <vehicle id="enorth_osmena_2.6" depart="1440.00">
        <route edges="north_osmena_2 north_osmena_3"/>
    </vehicle>
    <vehicle id="enorth_roa_0.2" depart="1440.00">
        <route edges="north_roa_0 west_luna_2 south_osmena_1 south_osmena_2 east_recto_1 east_recto_2 east_recto_3"/>
    </vehicle>
    <vehicle id="ewest_luna_1.4" depart="1440.00">
        <route edges="west_luna_1 north_roa_1"/>
    </vehicle>
    <vehicle id="ewest_recto_1.41" depart="1447.05">
        <route edges="west_recto_1 west_recto_2 west_recto_3"/>
    </vehicle>
    <vehicle id="ewest_recto_2.17" depart="1457.14">
        <route edges="west_recto_2 south_osmena_3"/>
    </vehicle>
    <vehicle id="eeast_recto_1.11" depart="1466.66">
        <route edges="east_recto_1 east_recto_2 south_corrales_2"/>
    </vehicle>
    <vehicle id="ewest_recto_1.42" depart="1482.35">
        <route edges="west_recto_1 west_recto_2 north_osmena_1 north_osmena_2 north_osmena_3"/>
    </vehicle>
    <vehicle id="esouth_osmena_1.5" depart="1500.00">
        <route edges="south_osmena_1 south_osmena_2 west_recto_3"/>
    </vehicle>
    <vehicle id="esouth_osmena_2.5" depart="1500.00">
        <route edges="south_osmena_2 east_recto_1 east_recto_2 north_corrales_1 north_corrales_2"/>
    </vehicle>
    <vehicle id="eeast_recto_0.13" depart="1509.68">
        <route edges="east_recto_0 east_recto_1 east_recto_2 east_recto_3"/>
    </vehicle>
    <vehicle id="ewest_recto_1.43" depart="1517.64">
        <route edges="west_recto_1 west_recto_2 south_osmena_3"/>
    </vehicle>
    <vehicle id="ewest_recto_2.18" depart="1542.85">
        <route edges="west_recto_2 west_recto_3"/>
    </vehicle>
    <vehicle id="esouth_osmena_0.3" depart="1542.86">
        <route edges="south_osmena_0 south_osmena_1 south_osmena_2 east_recto_1 east_recto_2 south_corrales_2"/>
    </vehicle>
    <vehicle id="ewest_recto_1.44" depart="1552.94">
        <route edges="west_recto_1 west_recto_2 west_recto_3"/>
    </vehicle>
    <vehicle id="ewest_recto_1.45" depart="1588.23">
        <route edges="west_recto_1 west_recto_2 west_recto_3"/>
    </vehicle>
    <vehicle id="eeast_recto_1.12" depart="1600.00">
        <route edges="east_recto_1 east_recto_2 north_corrales_1 north_corrales_2"/>
    </vehicle>
    <vehicle id="enorth_osmena_1.4" depart="1600.00">
        <route edges="north_osmena_1 north_osmena_2 north_osmena_3"/>
    </vehicle>
    <vehicle id="ewest_recto_1.46" depart="1623.52">
        <route edges="west_recto_1 west_recto_2 west_recto_3"/>
    </vehicle>
    <vehicle id="eeast_recto_0.14" depart="1625.81">
        <route edges="east_recto_0 east_recto_1 east_recto_2 south_corrales_2"/>
    </vehicle>
    <vehicle id="ewest_recto_2.19" depart="1628.57">
        <route edges="west_recto_2 south_osmena_3"/>
    </vehicle>
    <vehicle id="ewest_recto_1.47" depart="1658.82">
        <route edges="west_recto_1 west_recto_2 west_recto_3"/>
    </vehicle>
    <vehicle id="enorth_osmena_2.7" depart="1680.00">
        <route edges="north_osmena_2 north_osmena_3"/>
    </vehicle>
    <vehicle id="ewest_recto_1.48" depart="1694.11">
        <route edges="west_recto_1 west_recto_2 west_recto_3"/>
    </vehicle>
    <vehicle id="ewest_recto_2.20" depart="1714.28">
        <route edges="west_recto_2 west_recto_3"/>
    </vehicle>
    <vehicle id="ewest_recto_1.49" depart="1729.41">
        <route edges="west_recto_1 west_recto_2 west_recto_3"/>
    </vehicle>
    <vehicle id="eeast_recto_1.13" depart="1733.33">
        <route edges="east_recto_1 east_recto_2 east_recto_3"/>
    </vehicle>
    <vehicle id="eeast_recto_0.15" depart="1741.94">
        <route edges="east_recto_0 north_osmena_1 north_osmena_2 north_osmena_3"/>
    </vehicle>
    <vehicle id="ewest_recto_1.50" depart="1764.70">
        <route edges="west_recto_1 west_recto_2 south_osmena_3"/>
    </vehicle>
    <vehicle id="ewest_recto_1.51" depart="1799.99">
        <route edges="west_recto_1 west_recto_2 north_osmena_1 north_osmena_2 north_osmena_3"/>
    </vehicle>
    <vehicle id="ewest_recto_2.21" depart="1799.99">
        <route edges="west_recto_2 west_recto_3"/>
    </vehicle>
    <vehicle id="eeast_luna_0.5" depart="1800.00">
        <route edges="east_luna_0 east_luna_1 east_luna_2"/>
    </vehicle>
    <vehicle id="enorth_osmena_0.4" depart="1800.00">
        <route edges="north_osmena_0 east_recto_1 east_recto_2 north_corrales_1 north_corrales_2"/>
    </vehicle>
    <vehicle id="esouth_corrales_0.3" depart="1800.00">
        <route edges="south_corrales_0 south_corrales_1 south_corrales_2"/>
    </vehicle>
    <vehicle id="esouth_osmena_1.6" depart="1800.00">
        <route edges="south_osmena_1 south_osmena_2 east_recto_1 east_recto_2 north_corrales_1 north_corrales_2"/>
    </vehicle>
    <vehicle id="esouth_osmena_2.6" depart="1800.00">
        <route edges="south_osmena_2 south_osmena_3"/>
    </vehicle>
    <vehicle id="esouth_roa_0.4" depart="1800.00">
        <route edges="south_roa_0 south_roa_1 west_recto_2 west_recto_3"/>
    </vehicle>
    <vehicle id="esouth_roa_1.1" depart="1800.00">
        <route edges="south_roa_1 west_recto_2 west_recto_3"/>
    </vehicle>
    <vehicle id="ewest_luna_0.1" depart="1800.00">
        <route edges="west_luna_0 west_luna_1 west_luna_2 north_osmena_3"/>
    </vehicle>
    <vehicle id="ewest_luna_1.5" depart="1800.00">
        <route edges="west_luna_1 south_roa_1 west_recto_2 west_recto_3"/>
    </vehicle>
    <vehicle id="ewest_luna_2.1" depart="1800.00">
        <route edges="west_luna_2 south_osmena_1 south_osmena_2 south_osmena_3"/>
    </vehicle>
    <vehicle id="ewest_recto_1.52" depart="1835.29">
        <route edges="west_recto_1 north_roa_0 east_luna_1 east_luna_2"/>
    </vehicle>
    <vehicle id="eeast_recto_0.16" depart="1858.06">
        <route edges="east_recto_0 east_recto_1 east_recto_2 north_corrales_1 north_corrales_2"/>
    </vehicle>
    <vehicle id="eeast_recto_1.14" depart="1866.66">
        <route edges="east_recto_1 east_recto_2 south_corrales_2"/>
    </vehicle>
    <vehicle id="ewest_recto_1.53" depart="1870.58">
        <route edges="west_recto_1 west_recto_2 west_recto_3"/>
    </vehicle>
    <vehicle id="ewest_recto_2.22" depart="1885.71">
        <route edges="west_recto_2 west_recto_3"/>
    </vehicle>
    <vehicle id="ewest_recto_1.54" depart="1905.88">
        <route edges="west_recto_1 west_recto_2 west_recto_3"/>
    </vehicle>
    <vehicle id="enorth_osmena_2.8" depart="1920.00">
        <route edges="north_osmena_2 north_osmena_3"/>
    </vehicle>
    <vehicle id="ewest_recto_1.55" depart="1941.17">
        <route edges="west_recto_1 west_recto_2 west_recto_3"/>
    </vehicle>
    <vehicle id="ewest_recto_2.23" depart="1971.42">
        <route edges="west_recto_2 west_recto_3"/>
    </vehicle>
    <vehicle id="eeast_recto_0.17" depart="1974.19">
        <route edges="east_recto_0 east_recto_1 east_recto_2 east_recto_3"/>
    </vehicle>
    <vehicle id="ewest_recto_1.56" depart="1976.46">
        <route edges="west_recto_1 west_recto_2 north_osmena_1 north_osmena_2 north_osmena_3"/>
    </vehicle>
    <vehicle id="eeast_recto_1.15" depart="2000.00">
        <route edges="east_recto_1 east_recto_2 east_recto_3"/>
    </vehicle>
    <vehicle id="enorth_osmena_1.5" depart="2000.00">
        <route edges="north_osmena_1 west_florentino_0"/>
    </vehicle>
    <vehicle id="ewest_recto_1.57" depart="2011.76">
        <route edges="west_recto_1 west_recto_2 south_osmena_3"/>
    </vehicle>
    <vehicle id="ewest_recto_1.58" depart="2047.05">
        <route edges="west_recto_1 west_recto_2 west_recto_3"/>
    </vehicle>
    <vehicle id="ewest_recto_2.24" depart="2057.14">
        <route edges="west_recto_2 west_recto_3"/>
    </vehicle>
    <vehicle id="esouth_osmena_0.4" depart="2057.14">
        <route edges="south_osmena_0 south_osmena_1 south_osmena_2 south_osmena_3"/>
    </vehicle>
    <vehicle id="ewest_recto_1.59" depart="2082.35">
        <route edges="west_recto_1 west_recto_2 west_recto_3"/>
    </vehicle>
    <vehicle id="eeast_recto_0.18" depart="2090.32">
        <route edges="east_recto_0 east_recto_1 east_recto_2 north_corrales_1 north_corrales_2"/>
    </vehicle>
    <vehicle id="esouth_osmena_1.7" depart="2100.00">
        <route edges="south_osmena_1 south_osmena_2 south_osmena_3"/>
    </vehicle>
    <vehicle id="esouth_osmena_2.7" depart="2100.00">
        <route edges="south_osmena_2 east_recto_1 east_recto_2 north_corrales_1 north_corrales_2"/>
    </vehicle>
    <vehicle id="ewest_recto_1.60" depart="2117.64">
        <route edges="west_recto_1 west_recto_2 west_recto_3"/>
    </vehicle>
    <vehicle id="eeast_recto_1.16" depart="2133.33">
        <route edges="east_recto_1 east_recto_2 south_corrales_2"/>
    </vehicle>
    <vehicle id="ewest_recto_2.25" depart="2142.85">
        <route edges="west_recto_2 south_osmena_3"/>
    </vehicle>
    <vehicle id="ewest_recto_1.61" depart="2152.93">
        <route edges="west_recto_1 west_recto_2 west_recto_3"/>
    </vehicle>
    <vehicle id="eeast_luna_0.6" depart="2160.00">
        <route edges="east_luna_0 east_luna_1 south_corrales_1 west_recto_1 west_recto_2 west_recto_3"/>
    </vehicle>
    <vehicle id="enorth_corrales_1.3" depart="2160.00">
        <route edges="north_corrales_1 north_corrales_2"/>
    </vehicle>
    <vehicle id="enorth_osmena_2.9" depart="2160.00">
        <route edges="north_osmena_2 east_luna_0 north_roa_1"/>
    </vehicle>
    <vehicle id="enorth_roa_0.3" depart="2160.00">
        <route edges="north_roa_0 west_luna_2 north_osmena_3"/>
    </vehicle>
    <vehicle id="ewest_luna_1.6" depart="2160.00">
        <route edges="west_luna_1 north_roa_1"/>
    </vehicle>
    <vehicle id="ewest_recto_1.62" depart="2188.23">
        <route edges="west_recto_1 west_recto_2 west_recto_3"/>
    </vehicle>
    <vehicle id="eeast_recto_0.19" depart="2206.45">
        <route edges="east_recto_0 north_osmena_1 north_osmena_2 north_osmena_3"/>
    </vehicle>
    <vehicle id="ewest_recto_1.63" depart="2223.52">
        <route edges="west_recto_1 west_recto_2 north_osmena_1 north_osmena_2 north_osmena_3"/>
    </vehicle>
    <vehicle id="ewest_recto_2.26" depart="2228.56">
        <route edges="west_recto_2 west_recto_3"/>
    </vehicle>
    <vehicle id="enorth_osmena_0.5" depart="2250.00">
        <route edges="north_osmena_0 west_recto_3"/>
    </vehicle>
    <vehicle id="esouth_roa_0.5" depart="2250.00">