<?xml version="1.0" encoding="UTF-8"?>

<!-- generated on 2023-03-30 00:08:29 by Eclipse SUMO jtrrouter Version 1.15.0
<configuration xmlns:xsi="http://www.w3.org/2001/XMLSchema-instance" xsi:noNamespaceSchemaLocation="http://sumo.dlr.de/xsd/jtrrouterConfiguration.xsd">

    <input>
        <net-file value="D:\School Documents\Thesis\DQL_AveEntLumRei\Simulation_Environment\Main MADDPG\osm.net.xml"/>
        <route-files value="flows.tmp.xml"/>
        <turn-ratio-files value="Route Files\others.xml"/>
    </input>

    <output>
        <output-file value="Simulation_Environment\Main MADDPG\Final Route Folder\others_route.xml"/>
    </output>

    <processing>
        <accept-all-destinations value="true"/>
    </processing>

</configuration>
-->

<routes xmlns:xsi="http://www.w3.org/2001/XMLSchema-instance" xsi:noNamespaceSchemaLocation="http://sumo.dlr.de/xsd/routes_file.xsd">
    <vType accel="0.8" decel="4.0" sigma="0.5" length="7.0" minGap="2.5" maxSpeed="30.0" guiShape="truck" color="0,0,255" id="others"/>
    <vehicle id="heast_florentino_0.0" depart="0.00">
        <route edges="east_florentino_0 south_osmena_2 south_osmena_3"/>
    </vehicle>
    <vehicle id="heast_luna_0.0" depart="0.00">
        <route edges="east_luna_0 east_luna_1 south_corrales_1 south_corrales_2"/>
    </vehicle>
    <vehicle id="heast_recto_0.0" depart="0.00">
        <route edges="east_recto_0 east_recto_1 east_recto_2 south_corrales_2"/>
    </vehicle>
    <vehicle id="heast_recto_1.0" depart="0.00">
        <route edges="east_recto_1 east_recto_2 east_recto_3"/>
    </vehicle>
    <vehicle id="hnorth_osmena_0.0" depart="0.00">
        <route edges="north_osmena_0 north_osmena_1 north_osmena_2 north_osmena_3"/>
    </vehicle>
    <vehicle id="hnorth_osmena_1.0" depart="0.00">
        <route edges="north_osmena_1 north_osmena_2 north_osmena_3"/>
    </vehicle>
    <vehicle id="hnorth_osmena_2.0" depart="0.00">
        <route edges="north_osmena_2 north_osmena_3"/>
    </vehicle>
    <vehicle id="hnorth_roa_0.0" depart="0.00">
        <route edges="north_roa_0 east_luna_1 east_luna_2"/>
    </vehicle>
    <vehicle id="hsouth_osmena_0.0" depart="0.00">
        <route edges="south_osmena_0 south_osmena_1 south_osmena_2 east_recto_1 east_recto_2 east_recto_3"/>
    </vehicle>
    <vehicle id="hsouth_osmena_1.0" depart="0.00">
        <route edges="south_osmena_1 south_osmena_2 west_recto_3"/>
    </vehicle>
    <vehicle id="hsouth_osmena_2.0" depart="0.00">
        <route edges="south_osmena_2 west_recto_3"/>
    </vehicle>
    <vehicle id="hsouth_roa_0.0" depart="0.00">
        <route edges="south_roa_0 west_luna_2 north_osmena_3"/>
    </vehicle>
    <vehicle id="hwest_luna_1.0" depart="0.00">
        <route edges="west_luna_1 west_luna_2 north_osmena_3"/>
    </vehicle>
    <vehicle id="hwest_luna_2.0" depart="0.00">
        <route edges="west_luna_2 north_osmena_3"/>
    </vehicle>
    <vehicle id="hwest_recto_2.0" depart="0.00">
        <route edges="west_recto_2 west_recto_3"/>
    </vehicle>
    <vehicle id="hwest_recto_2.1" depart="124.14">
        <route edges="west_recto_2 west_recto_3"/>
    </vehicle>
    <vehicle id="heast_recto_0.1" depart="171.43">
        <route edges="east_recto_0 east_recto_1 east_recto_2 south_corrales_2"/>
    </vehicle>
    <vehicle id="heast_recto_1.1" depart="200.00">
        <route edges="east_recto_1 east_recto_2 east_recto_3"/>
    </vehicle>
    <vehicle id="hwest_recto_2.2" depart="248.27">
        <route edges="west_recto_2 north_osmena_1 north_osmena_2 north_osmena_3"/>
    </vehicle>
    <vehicle id="hsouth_osmena_1.1" depart="300.00">
        <route edges="south_osmena_1 west_florentino_0"/>
    </vehicle>
    <vehicle id="heast_recto_0.2" depart="342.86">
        <route edges="east_recto_0 east_recto_1 east_recto_2 south_corrales_2"/>
    </vehicle>
    <vehicle id="hnorth_osmena_2.1" depart="360.00">
        <route edges="north_osmena_2 north_osmena_3"/>
    </vehicle>
    <vehicle id="hwest_recto_2.3" depart="372.41">
        <route edges="west_recto_2 south_osmena_3"/>
    </vehicle>
    <vehicle id="heast_recto_1.2" depart="400.00">
        <route edges="east_recto_1 east_recto_2 south_corrales_2"/>
    </vehicle>
    <vehicle id="hnorth_osmena_1.1" depart="400.00">
        <route edges="north_osmena_1 north_osmena_2 north_osmena_3"/>
    </vehicle>
    <vehicle id="hsouth_osmena_2.1" depart="400.00">
        <route edges="south_osmena_2 south_osmena_3"/>
    </vehicle>
    <vehicle id="hwest_luna_1.1" depart="400.00">
        <route edges="west_luna_1 west_luna_2 south_osmena_1 west_florentino_0"/>
    </vehicle>
    <vehicle id="hwest_recto_2.4" depart="496.55">
        <route edges="west_recto_2 west_recto_3"/>
    </vehicle>
    <vehicle id="heast_recto_0.3" depart="514.28">
        <route edges="east_recto_0 east_recto_1 east_recto_2 south_corrales_2"/>
    </vehicle>
    <vehicle id="heast_luna_0.1" depart="514.29">
        <route edges="east_luna_0 south_roa_1 west_recto_2 west_recto_3"/>
    </vehicle>
    <vehicle id="hsouth_roa_0.1" depart="514.29">
        <route edges="south_roa_0 east_luna_1 south_corrales_1 west_recto_1 north_roa_0 west_luna_2 north_osmena_3"/>
    </vehicle>
    <vehicle id="heast_recto_1.3" depart="600.00">
        <route edges="east_recto_1 east_recto_2 north_corrales_1 east_luna_2"/>
    </vehicle>
    <vehicle id="hsouth_osmena_1.2" depart="600.00">
        <route edges="south_osmena_1 south_osmena_2 east_recto_1 east_recto_2 south_corrales_2"/>
    </vehicle>
    <vehicle id="hwest_recto_2.5" depart="620.69">
        <route edges="west_recto_2 south_osmena_3"/>
    </vehicle>
    <vehicle id="heast_recto_0.4" depart="685.71">
        <route edges="east_recto_0 east_recto_1 east_recto_2 east_recto_3"/>
    </vehicle>
    <vehicle id="hnorth_osmena_2.2" depart="720.00">
        <route edges="north_osmena_2 north_osmena_3"/>
    </vehicle>
    <vehicle id="hsouth_osmena_0.1" depart="720.00">
        <route edges="south_osmena_0 south_osmena_1 south_osmena_2 south_osmena_3"/>
    </vehicle>
    <vehicle id="hwest_recto_2.6" depart="744.82">
        <route edges="west_recto_2 west_recto_3"/>
    </vehicle>
    <vehicle id="heast_recto_1.4" depart="800.00">
        <route edges="east_recto_1 east_recto_2 east_recto_3"/>
    </vehicle>
    <vehicle id="hnorth_osmena_1.2" depart="800.00">
        <route edges="north_osmena_1 north_osmena_2 north_osmena_3"/>
    </vehicle>
    <vehicle id="hsouth_osmena_2.2" depart="800.00">
        <route edges="south_osmena_2 south_osmena_3"/>
    </vehicle>
    <vehicle id="hwest_luna_1.2" depart="800.00">
        <route edges="west_luna_1 south_roa_1 west_recto_2 west_recto_3"/>
    </vehicle>
    <vehicle id="heast_recto_0.5" depart="857.14">
        <route edges="east_recto_0 east_recto_1 east_recto_2 south_corrales_2"/>
    </vehicle>
    <vehicle id="hwest_recto_2.7" depart="868.96">
        <route edges="west_recto_2 west_recto_3"/>
    </vehicle>
    <vehicle id="hnorth_osmena_0.1" depart="900.00">
        <route edges="north_osmena_0 north_osmena_1 west_florentino_0"/>
    </vehicle>
    <vehicle id="hnorth_roa_0.1" depart="900.00">
        <route edges="north_roa_0 north_roa_1"/>
    </vehicle>
    <vehicle id="hsouth_osmena_1.3" depart="900.00">
        <route edges="south_osmena_1 south_osmena_2 south_osmena_3"/>
    </vehicle>
    <vehicle id="hwest_recto_2.8" depart="993.10">
        <route edges="west_recto_2 west_recto_3"/>
    </vehicle>
    <vehicle id="heast_recto_1.5" depart="1000.00">
        <route edges="east_recto_1 east_recto_2 east_recto_3"/>
    </vehicle>
    <vehicle id="heast_recto_0.6" depart="1028.57">
        <route edges="east_recto_0 south_osmena_3"/>
    </vehicle>
    <vehicle id="heast_luna_0.2" depart="1028.57">
        <route edges="east_luna_0 east_luna_1 south_corrales_1 south_corrales_2"/>
    </vehicle>
    <vehicle id="hsouth_roa_0.2" depart="1028.57">
        <route edges="south_roa_0 south_roa_1 west_recto_2 west_recto_3"/>
    </vehicle>
    <vehicle id="hnorth_osmena_2.3" depart="1080.00">
        <route edges="north_osmena_2 north_osmena_3"/>
    </vehicle>
    <vehicle id="hwest_recto_2.9" depart="1117.23">
        <route edges="west_recto_2 west_recto_3"/>
    </vehicle>
    <vehicle id="heast_recto_0.7" depart="1200.00">
        <route edges="east_recto_0 east_recto_1 east_recto_2 south_corrales_2"/>
    </vehicle>
    <vehicle id="heast_recto_1.6" depart="1200.00">
        <route edges="east_recto_1 east_recto_2 south_corrales_2"/>
    </vehicle>
    <vehicle id="hnorth_osmena_1.3" depart="1200.00">
        <route edges="north_osmena_1 north_osmena_2 north_osmena_3"/>
    </vehicle>
    <vehicle id="hsouth_osmena_1.4" depart="1200.00">
        <route edges="south_osmena_1 south_osmena_2 east_recto_1 east_recto_2 east_recto_3"/>
    </vehicle>
    <vehicle id="hsouth_osmena_2.3" depart="1200.00">
        <route edges="south_osmena_2 west_recto_3"/>
    </vehicle>
    <vehicle id="hwest_luna_1.3" depart="1200.00">
        <route edges="west_luna_1 west_luna_2 north_osmena_3"/>
    </vehicle>
    <vehicle id="hwest_recto_2.10" depart="1241.37">
        <route edges="west_recto_2 west_recto_3"/>
    </vehicle>
    <vehicle id="hwest_recto_2.11" depart="1365.51">
        <route edges="west_recto_2 west_recto_3"/>
    </vehicle>
    <vehicle id="heast_recto_0.8" depart="1371.42">
        <route edges="east_recto_0 east_recto_1 east_recto_2 east_recto_3"/>
    </vehicle>
    <vehicle id="heast_recto_1.7" depart="1400.00">
        <route edges="east_recto_1 east_recto_2 east_recto_3"/>
    </vehicle>
    <vehicle id="hnorth_osmena_2.4" depart="1440.00">
        <route edges="north_osmena_2 north_osmena_3"/>
    </vehicle>
    <vehicle id="hsouth_osmena_0.2" depart="1440.00">
        <route edges="south_osmena_0 south_osmena_1 south_osmena_2 east_recto_1 east_recto_2 east_recto_3"/>
    </vehicle>
    <vehicle id="hwest_recto_2.12" depart="1489.64">
        <route edges="west_recto_2 west_recto_3"/>
    </vehicle>
    <vehicle id="hsouth_osmena_1.5" depart="1500.00">
        <route edges="south_osmena_1 west_florentino_0"/>
    </vehicle>
    <vehicle id="heast_recto_0.9" depart="1542.85">
        <route edges="east_recto_0 east_recto_1 east_recto_2 north_corrales_1 north_corrales_2"/>
    </vehicle>
    <vehicle id="heast_luna_0.3" depart="1542.86">
        <route edges="east_luna_0 east_luna_1 east_luna_2"/>
    </vehicle>
    <vehicle id="hsouth_roa_0.3" depart="1542.86">
        <route edges="south_roa_0 east_luna_1 south_corrales_1 south_corrales_2"/>
    </vehicle>
    <vehicle id="heast_recto_1.8" depart="1600.00">
        <route edges="east_recto_1 east_recto_2 east_recto_3"/>
    </vehicle>
    <vehicle id="hnorth_osmena_1.4" depart="1600.00">
        <route edges="north_osmena_1 north_osmena_2 north_osmena_3"/>
    </vehicle>
    <vehicle id="hsouth_osmena_2.4" depart="1600.00">
        <route edges="south_osmena_2 west_recto_3"/>
    </vehicle>
    <vehicle id="hwest_luna_1.4" depart="1600.00">
        <route edges="west_luna_1 north_roa_1"/>
    </vehicle>
    <vehicle id="hwest_recto_2.13" depart="1613.78">
        <route edges="west_recto_2 west_recto_3"/>
    </vehicle>
    <vehicle id="heast_recto_0.10" depart="1714.28">
        <route edges="east_recto_0 north_osmena_1 north_osmena_2 east_luna_0 north_roa_1"/>
    </vehicle>
    <vehicle id="hwest_recto_2.14" depart="1737.92">
        <route edges="west_recto_2 west_recto_3"/>
    </vehicle>
    <vehicle id="heast_recto_1.9" depart="1800.00">
        <route edges="east_recto_1 east_recto_2 north_corrales_1 east_luna_2"/>
    </vehicle>
    <vehicle id="hnorth_osmena_0.2" depart="1800.00">
        <route edges="north_osmena_0 north_osmena_1 north_osmena_2 north_osmena_3"/>
    </vehicle>
    <vehicle id="hnorth_osmena_2.5" depart="1800.00">
        <route edges="north_osmena_2 north_osmena_3"/>
    </vehicle>
    <vehicle id="hnorth_roa_0.2" depart="1800.00">
        <route edges="north_roa_0 north_roa_1"/>
    </vehicle>
    <vehicle id="hsouth_osmena_1.6" depart="1800.00">
        <route edges="south_osmena_1 south_osmena_2 east_recto_1 east_recto_2 east_recto_3"/>
    </vehicle>
    <vehicle id="hwest_luna_2.1" depart="1800.00">
        <route edges="west_luna_2 south_osmena_1 south_osmena_2 south_osmena_3"/>
    </vehicle>
    <vehicle id="hwest_recto_2.15" depart="1862.06">
        <route edges="west_recto_2 west_recto_3"/>
    </vehicle>
    <vehicle id="heast_recto_0.11" depart="1885.71">
        <route edges="east_recto_0 east_recto_1 east_recto_2 south_corrales_2"/>
    </vehicle>
    <vehicle id="hwest_recto_2.16" depart="1986.19">
        <route edges="west_recto_2 west_recto_3"/>
    </vehicle>
    <vehicle id="heast_recto_1.10" depart="2000.00">
        <route edges="east_recto_1 east_recto_2 south_corrales_2"/>
    </vehicle>
    <vehicle id="hnorth_osmena_1.5" depart="2000.00">
        <route edges="north_osmena_1 north_osmena_2 north_osmena_3"/>
    </vehicle>
    <vehicle id="hsouth_osmena_2.5" depart="2000.00">
        <route edges="south_osmena_2 east_recto_1 east_recto_2 east_recto_3"/>
    </vehicle>
    <vehicle id="hwest_luna_1.5" depart="2000.00">
        <route edges="west_luna_1 south_roa_1 east_recto_2 east_recto_3"/>
    </vehicle>
    <vehicle id="heast_recto_0.12" depart="2057.14">
        <route edges="east_recto_0 east_recto_1 east_recto_2 north_corrales_1 east_luna_2"/>
    </vehicle>
    <vehicle id="heast_luna_0.4" depart="2057.14">
        <route edges="east_luna_0 south_roa_1 east_recto_2 east_recto_3"/>
    </vehicle>
    <vehicle id="hsouth_roa_0.4" depart="2057.14">
        <route edges="south_roa_0 south_roa_1 west_recto_2 west_recto_3"/>
    </vehicle>
    <vehicle id="hsouth_osmena_1.7" depart="2100.00">
        <route edges="south_osmena_1 south_osmena_2 south_osmena_3"/>
    </vehicle>
    <vehicle id="hwest_recto_2.17" depart="2110.33">
        <route edges="west_recto_2 west_recto_3"/>
    </vehicle>
    <vehicle id="hnorth_osmena_2.6" depart="2160.00">
        <route edges="north_osmena_2 north_osmena_3"/>
    </vehicle>
    <vehicle id="hsouth_osmena_0.3" depart="2160.00">
        <route edges="south_osmena_0 east_luna_0 east_luna_1 south_corrales_1 south_corrales_2"/>
    </vehicle>
    <vehicle id="heast_recto_1.11" depart="2200.00">
        <route edges="east_recto_1 east_recto_2 east_recto_3"/>
    </vehicle>
    <vehicle id="heast_recto_0.13" depart="2228.56">
        <route edges="east_recto_0 east_recto_1 east_recto_2 east_recto_3"/>
    </vehicle>
    <vehicle id="hwest_recto_2.18" depart="2234.47">
        <route edges="west_recto_2 south_osmena_3"/>
    </vehicle>
    <vehicle id="hwest_recto_2.19" depart="2358.60">
        <route edges="west_recto_2 west_recto_3"/>
    </vehicle>
    <vehicle id="heast_recto_0.14" depart="2399.99">
        <route edges="east_recto_0 east_recto_1 east_recto_2 east_recto_3"/>
    </vehicle>
    <vehicle id="heast_recto_1.12" depart="2400.00">
        <route edges="east_recto_1 east_recto_2 east_recto_3"/>
    </vehicle>
    <vehicle id="hnorth_osmena_1.6" depart="2400.00">
        <route edges="north_osmena_1 north_osmena_2 north_osmena_3"/>
    </vehicle>
    <vehicle id="hsouth_osmena_1.8" depart="2400.00">
        <route edges="south_osmena_1 west_florentino_0"/>
    </vehicle>
    <vehicle id="hsouth_osmena_2.6" depart="2400.00">
        <route edges="south_osmena_2 west_recto_3"/>
    </vehicle>
    <vehicle id="hwest_luna_1.6" depart="2400.00">
        <route edges="west_luna_1 north_roa_1"/>
    </vehicle>
    <vehicle id="hwest_recto_2.20" depart="2482.74">
        <route edges="west_recto_2 west_recto_3"/>
    </vehicle>
    <vehicle id="hnorth_osmena_2.7" depart="2520.00">
        <route edges="north_osmena_2 north_osmena_3"/>
    </vehicle>
    <vehicle id="heast_recto_0.15" depart="2571.42">
        <route edges="east_recto_0 east_recto_1 east_recto_2 south_corrales_2"/>
    </vehicle>
    <vehicle id="heast_luna_0.5" depart="2571.43">
        <route edges="east_luna_0 east_luna_1 south_corrales_1 south_corrales_2"/>
    </vehicle>
    <vehicle id="hsouth_roa_0.5" depart="2571.43">
        <route edges="south_roa_0 west_luna_2 north_osmena_3"/>
    </vehicle>
    <vehicle id="heast_recto_1.13" depart="2600.00">
        <route edges="east_recto_1 east_recto_2 east_recto_3"/>
    </vehicle>
    <vehicle id="hwest_recto_2.21" depart="2606.88">
        <route edges="west_recto_2 north_osmena_1 north_osmena_2 north_osmena_3"/>
    </vehicle>
    <vehicle id="hnorth_osmena_0.3" depart="2700.00">
        <route edges="north_osmena_0 north_osmena_1 north_osmena_2 east_luna_0 south_roa_1 west_recto_2 west_recto_3"/>
    </vehicle>
    <vehicle id="hnorth_roa_0.3" depart="2700.00">
        <route edges="north_roa_0 north_roa_1"/>
    </vehicle>
    <vehicle id="hsouth_osmena_1.9" depart="2700.00">
        <route edges="south_osmena_1 south_osmena_2 west_recto_3"/>
    </vehicle>
    <vehicle id="hwest_recto_2.22" depart="2731.01">
        <route edges="west_recto_2 west_recto_3"/>
    </vehicle>
    <vehicle id="heast_recto_0.16" depart="2742.85">
        <route edges="east_recto_0 east_recto_1 east_recto_2 east_recto_3"/>
    </vehicle>
    <vehicle id="heast_recto_1.14" depart="2800.00">
        <route edges="east_recto_1 east_recto_2 east_recto_3"/>
    </vehicle>
    <vehicle id="hnorth_osmena_1.7" depart="2800.00">
        <route edges="north_osmena_1 north_osmena_2 north_osmena_3"/>
    </vehicle>
    <vehicle id="hsouth_osmena_2.7" depart="2800.00">
        <route edges="south_osmena_2 south_osmena_3"/>
    </vehicle>
    <vehicle id="hwest_luna_1.7" depart="2800.00">
        <route edges="west_luna_1 west_luna_2 north_osmena_3"/>
    </vehicle>
    <vehicle id="hwest_recto_2.23" depart="2855.15">
        <route edges="west_recto_2 south_osmena_3"/>
    </vehicle>
    <vehicle id="hnorth_osmena_2.8" depart="2880.00">
        <route edges="north_osmena_2 north_osmena_3"/>
    </vehicle>
    <vehicle id="hsouth_osmena_0.4" depart="2880.00">
        <route edges="south_osmena_0 south_osmena_1 south_osmena_2 east_recto_1 east_recto_2 north_corrales_1 north_corrales_2"/>
    </vehicle>
    <vehicle id="heast_recto_0.17" depart="2914.28">
        <route edges="east_recto_0 east_recto_1 east_recto_2 east_recto_3"/>
    </vehicle>
    <vehicle id="hwest_recto_2.24" depart="2979.29">
        <route edges="west_recto_2 north_osmena_1 north_osmena_2 north_osmena_3"/>
    </vehicle>
    <vehicle id="heast_recto_1.15" depart="3000.00">
        <route edges="east_recto_1 east_recto_2 east_recto_3"/>
    </vehicle>
    <vehicle id="hsouth_osmena_1.10" depart="3000.00">
        <route edges="south_osmena_1 south_osmena_2 east_recto_1 east_recto_2 east_recto_3"/>
    </vehicle>
    <vehicle id="heast_recto_0.18" depart="3085.70">
        <route edges="east_recto_0 east_recto_1 east_recto_2 east_recto_3"/>
    </vehicle>
    <vehicle id="heast_luna_0.6" depart="3085.71">
        <route edges="east_luna_0 north_roa_1"/>
    </vehicle>
    <vehicle id="hsouth_roa_0.6" depart="3085.71">
        <route edges="south_roa_0 south_roa_1 east_recto_2 south_corrales_2"/>
    </vehicle>
    <vehicle id="hwest_recto_2.25" depart="3103.43">
        <route edges="west_recto_2 west_recto_3"/>
    </vehicle>
    <vehicle id="heast_recto_1.16" depart="3200.00">
        <route edges="east_recto_1 east_recto_2 east_recto_3"/>
    </vehicle>
    <vehicle id="hnorth_osmena_1.8" depart="3200.00">
        <route edges="north_osmena_1 north_osmena_2 north_osmena_3"/>
    </vehicle>
    <vehicle id="hsouth_osmena_2.8" depart="3200.00">
        <route edges="south_osmena_2 west_recto_3"/>
    </vehicle>
    <vehicle id="hwest_luna_1.8" depart="3200.00">
        <route edges="west_luna_1 west_luna_2 south_osmena_1 south_osmena_2 west_recto_3"/>
    </vehicle>
    <vehicle id="hwest_recto_2.26" depart="3227.56">
        <route edges="west_recto_2 west_recto_3"/>
    </vehicle>
    <vehicle id="hnorth_osmena_2.9" depart="3240.00">
        <route edges="north_osmena_2 north_osmena_3"/>
    </vehicle>
    <vehicle id="heast_recto_0.19" depart="3257.13">
        <route edges="east_recto_0 east_recto_1 east_recto_2 east_recto_3"/>
    </vehicle>
    <vehicle id="hsouth_osmena_1.11" depart="3300.00">
        <route edges="south_osmena_1 west_florentino_0"/>
    </vehicle>
    <vehicle id="hwest_recto_2.27" depart="3351.70">
        <route edges="west_recto_2 west_recto_3"/>
    </vehicle>
    <vehicle id="heast_recto_1.17" depart="3400.00">
        <route edges="east_recto_1 east_recto_2 south_corrales_2"/>
    </vehicle>
    <vehicle id="heast_recto_0.20" depart="3428.56">
        <route edges="east_recto_0 east_recto_1 east_recto_2 south_corrales_2"/>
    </vehicle>
    <vehicle id="hwest_recto_2.28" depart="3475.84">
        <route edges="west_recto_2 west_recto_3"/>
    </vehicle>
    <vehicle id="heast_florentino_0#1.0" depart="3600.00">
        <route edges="east_florentino_0 south_osmena_2 east_recto_1 east_recto_2 south_corrales_2"/>
    </vehicle>
    <vehicle id="heast_luna_0#1.0" depart="3600.00">
        <route edges="east_luna_0 east_luna_1 south_corrales_1 south_corrales_2"/>
    </vehicle>
    <vehicle id="heast_recto_0#1.0" depart="3600.00">
        <route edges="east_recto_0 east_recto_1 east_recto_2 north_corrales_1 east_luna_2"/>
    </vehicle>
    <vehicle id="heast_recto_1#1.0" depart="3600.00">
        <route edges="east_recto_1 east_recto_2 north_corrales_1 north_corrales_2"/>
    </vehicle>
    <vehicle id="hnorth_osmena_0#1.0" depart="3600.00">
        <route edges="north_osmena_0 north_osmena_1 north_osmena_2 north_osmena_3"/>
    </vehicle>
    <vehicle id="hnorth_osmena_1#1.0" depart="3600.00">
        <route edges="north_osmena_1 west_florentino_0"/>
    </vehicle>
    <vehicle id="hnorth_osmena_2#1.0" depart="3600.00">
        <route edges="north_osmena_2 east_luna_0 east_luna_1 south_corrales_1 west_recto_1 north_roa_0 north_roa_1"/>
    </vehicle>
    <vehicle id="hnorth_roa_0#1.0" depart="3600.00">
        <route edges="north_roa_0 east_luna_1 east_luna_2"/>
    </vehicle>
    <vehicle id="hsouth_osmena_0#1.0" depart="3600.00">
        <route edges="south_osmena_0 south_osmena_1 west_florentino_0"/>
    </vehicle>
    <vehicle id="hsouth_osmena_1#1.0" depart="3600.00">
        <route edges="south_osmena_1 west_florentino_0"/>
    </vehicle>
    <vehicle id="hsouth_osmena_2#1.0" depart="3600.00">
        <route edges="south_osmena_2 east_recto_1 east_recto_2 east_recto_3"/>
    </vehicle>
    <vehicle id="hsouth_roa_0#1.0" depart="3600.00">
        <route edges="south_roa_0 east_luna_1 south_corrales_1 south_corrales_2"/>
    </vehicle>
    <vehicle id="hwest_luna_1#1.0" depart="3600.00">
        <route edges="west_luna_1 west_luna_2 north_osmena_3"/>
    </vehicle>
    <vehicle id="hwest_luna_2#1.0" depart="3600.00">
        <route edges="west_luna_2 north_osmena_3"/>
    </vehicle>
    <vehicle id="hwest_recto_2#1.0" depart="3600.00">
        <route edges="west_recto_2 west_recto_3"/>
    </vehicle>
    <vehicle id="hwest_recto_2#1.1" depart="3675.00">
        <route edges="west_recto_2 south_osmena_3"/>
    </vehicle>
    <vehicle id="heast_recto_0#1.1" depart="3687.80">
        <route edges="east_recto_0 south_osmena_3"/>
    </vehicle>
    <vehicle id="heast_recto_1#1.1" depart="3705.88">
        <route edges="east_recto_1 east_recto_2 east_recto_3"/>
    </vehicle>
    <vehicle id="hwest_recto_2#1.2" depart="3750.00">
        <route edges="west_recto_2 west_recto_3"/>
    </vehicle>
    <vehicle id="heast_recto_0#1.2" depart="3775.61">
        <route edges="east_recto_0 south_osmena_3"/>
    </vehicle>
    <vehicle id="heast_recto_1#1.2" depart="3811.76">
        <route edges="east_recto_1 east_recto_2 east_recto_3"/>
    </vehicle>
    <vehicle id="hsouth_osmena_2#1.1" depart="3811.76">
        <route edges="south_osmena_2 south_osmena_3"/>
    </vehicle>
    <vehicle id="hwest_recto_2#1.3" depart="3825.00">
        <route edges="west_recto_2 north_osmena_1 north_osmena_2 north_osmena_3"/>
    </vehicle>
    <vehicle id="hnorth_osmena_2#1.1" depart="3857.14">
        <route edges="north_osmena_2 north_osmena_3"/>
    </vehicle>
    <vehicle id="hsouth_osmena_1#1.1" depart="3857.14">
        <route edges="south_osmena_1 south_osmena_2 south_osmena_3"/>
    </vehicle>
    <vehicle id="heast_recto_0#1.3" depart="3863.41">
        <route edges="east_recto_0 east_recto_1 east_recto_2 south_corrales_2"/>
    </vehicle>
    <vehicle id="hnorth_osmena_1#1.1" depart="3876.92">
        <route edges="north_osmena_1 north_osmena_2 north_osmena_3"/>
    </vehicle>
    <vehicle id="hwest_recto_2#1.4" depart="3900.00">
        <route edges="west_recto_2 west_recto_3"/>
    </vehicle>
    <vehicle id="heast_recto_1#1.3" depart="3917.65">
        <route edges="east_recto_1 east_recto_2 south_corrales_2"/>
    </vehicle>
    <vehicle id="heast_recto_0#1.4" depart="3951.22">
        <route edges="east_recto_0 east_recto_1 east_recto_2 north_corrales_1 north_corrales_2"/>
    </vehicle>
    <vehicle id="hnorth_osmena_0#1.1" depart="3960.00">
        <route edges="north_osmena_0 north_osmena_1 north_osmena_2 north_osmena_3"/>
    </vehicle>
    <vehicle id="hwest_recto_2#1.5" depart="3975.00">
        <route edges="west_recto_2 south_osmena_3"/>
    </vehicle>
    <vehicle id="hwest_luna_1#1.1" depart="4000.00">
        <route edges="west_luna_1 west_luna_2 south_osmena_1 south_osmena_2 south_osmena_3"/>
    </vehicle>
    <vehicle id="heast_recto_1#1.4" depart="4023.53">
        <route edges="east_recto_1 east_recto_2 east_recto_3"/>
    </vehicle>
    <vehicle id="hsouth_osmena_2#1.2" depart="4023.53">
        <route edges="south_osmena_2 south_osmena_3"/>
    </vehicle>
    <vehicle id="heast_recto_0#1.5" depart="4039.02">
        <route edges="east_recto_0 east_recto_1 east_recto_2 east_recto_3"/>
    </vehicle>
    <vehicle id="hwest_recto_2#1.6" depart="4050.00">
        <route edges="west_recto_2 west_recto_3"/>
    </vehicle>
    <vehicle id="hnorth_osmena_2#1.2" depart="4114.28">
        <route edges="north_osmena_2 east_luna_0 east_luna_1 south_corrales_1 east_recto_3"/>
    </vehicle>
    <vehicle id="hsouth_osmena_1#1.2" depart="4114.28">
        <route edges="south_osmena_1 west_florentino_0"/>
    </vehicle>
    <vehicle id="heast_luna_0#1.1" depart="4114.29">
        <route edges="east_luna_0 east_luna_1 east_luna_2"/>
    </vehicle>
    <vehicle id="hsouth_roa_0#1.1" depart="4114.29">
        <route edges="south_roa_0 east_luna_1 south_corrales_1 west_recto_1 west_recto_2 south_osmena_3"/>
    </vehicle>
    <vehicle id="hwest_recto_2#1.7" depart="4125.00">
        <route edges="west_recto_2 west_recto_3"/>
    </vehicle>
    <vehicle id="heast_recto_0#1.6" depart="4126.82">
        <route edges="east_recto_0 east_recto_1 east_recto_2 south_corrales_2"/>
    </vehicle>
    <vehicle id="heast_recto_1#1.5" depart="4129.41">
        <route edges="east_recto_1 east_recto_2 north_corrales_1 north_corrales_2"/>
    </vehicle>
    <vehicle id="hnorth_osmena_1#1.2" depart="4153.85">
        <route edges="north_osmena_1 north_osmena_2 north_osmena_3"/>
    </vehicle>
    <vehicle id="hsouth_osmena_0#1.1" depart="4200.00">
        <route edges="south_osmena_0 south_osmena_1 west_florentino_0"/>
    </vehicle>
    <vehicle id="hwest_recto_2#1.8" depart="4200.00">
        <route edges="west_recto_2 west_recto_3"/>
    </vehicle>
    <vehicle id="heast_recto_0#1.7" depart="4214.63">
        <route edges="east_recto_0 east_recto_1 east_recto_2 north_corrales_1 north_corrales_2"/>
    </vehicle>
    <vehicle id="heast_recto_1#1.6" depart="4235.29">
        <route edges="east_recto_1 east_recto_2 south_corrales_2"/>
    </vehicle>
    <vehicle id="hsouth_osmena_2#1.3" depart="4235.29">
        <route edges="south_osmena_2 east_recto_1 east_recto_2 east_recto_3"/>
    </vehicle>
    <vehicle id="hwest_recto_2#1.9" depart="4275.00">
        <route edges="west_recto_2 west_recto_3"/>
    </vehicle>
    <vehicle id="heast_recto_0#1.8" depart="4302.43">
        <route edges="east_recto_0 south_osmena_3"/>
    </vehicle>
    <vehicle id="hnorth_osmena_0#1.2" depart="4320.00">
        <route edges="north_osmena_0 north_osmena_1 north_osmena_2 north_osmena_3"/>
    </vehicle>
    <vehicle id="heast_recto_1#1.7" depart="4341.17">
        <route edges="east_recto_1 east_recto_2 east_recto_3"/>
    </vehicle>
    <vehicle id="hwest_recto_2#1.10" depart="4350.00">
        <route edges="west_recto_2 west_recto_3"/>
    </vehicle>
    <vehicle id="hnorth_osmena_2#1.3" depart="4371.43">
        <route edges="north_osmena_2 north_osmena_3"/>
    </vehicle>
    <vehicle id="hsouth_osmena_1#1.3" depart="4371.43">
        <route edges="south_osmena_1 west_florentino_0"/>
    </vehicle>
    <vehicle id="heast_recto_0#1.9" depart="4390.24">
        <route edges="east_recto_0 east_recto_1 east_recto_2 east_recto_3"/>
    </vehicle>
    <vehicle id="hwest_luna_1#1.2" depart="4400.00">
        <route edges="west_luna_1 west_luna_2 south_osmena_1 south_osmena_2 south_osmena_3"/>
    </vehicle>
    <vehicle id="hwest_recto_2#1.11" depart="4425.00">
        <route edges="west_recto_2 west_recto_3"/>
    </vehicle>
    <vehicle id="hnorth_osmena_1#1.3" depart="4430.77">
        <route edges="north_osmena_1 north_osmena_2 east_luna_0 north_roa_1"/>
    </vehicle>
    <vehicle id="heast_recto_1#1.8" depart="4447.06">
        <route edges="east_recto_1 east_recto_2 east_recto_3"/>
    </vehicle>
    <vehicle id="hsouth_osmena_2#1.4" depart="4447.06">
        <route edges="south_osmena_2 south_osmena_3"/>
    </vehicle>
    <vehicle id="heast_recto_0#1.10" depart="4478.04">
        <route edges="east_recto_0 north_osmena_1 north_osmena_2 east_luna_0 east_luna_1 east_luna_2"/>
    </vehicle>
    <vehicle id="hnorth_roa_0#1.1" depart="4500.00">