<?xml version="1.0" encoding="UTF-8"?>

<!-- generated on 2023-03-30 00:08:15 by Eclipse SUMO jtrrouter Version 1.15.0
<configuration xmlns:xsi="http://www.w3.org/2001/XMLSchema-instance" xsi:noNamespaceSchemaLocation="http://sumo.dlr.de/xsd/jtrrouterConfiguration.xsd">

    <input>
        <net-file value="D:\School Documents\Thesis\DQL_AveEntLumRei\Simulation_Environment\Main MADDPG\osm.net.xml"/>
        <route-files value="flows.tmp.xml"/>
        <turn-ratio-files value="Route Files\smallTrucks.xml"/>
    </input>

    <output>
        <output-file value="Simulation_Environment\Main MADDPG\Final Route Folder\smallTrucks_route.xml"/>
    </output>

    <processing>
        <accept-all-destinations value="true"/>
    </processing>

</configuration>
-->

<routes xmlns:xsi="http://www.w3.org/2001/XMLSchema-instance" xsi:noNamespaceSchemaLocation="http://sumo.dlr.de/xsd/routes_file.xsd">
    <vType accel="0.8" decel="4.0" sigma="0.5" length="7.0" minGap="2.5" maxSpeed="30.0" guiShape="truck" color="0,0,255" id="smallTrucks"/> 
    <vehicle id="ieast_florentino_0.0" depart="0.00">
        <route edges="east_florentino_0 south_osmena_2 south_osmena_3"/>
    </vehicle>
    <vehicle id="ieast_luna_0.0" depart="0.00">
        <route edges="east_luna_0 east_luna_1 east_luna_2"/>
    </vehicle>
    <vehicle id="ieast_luna_1.0" depart="0.00">
        <route edges="east_luna_1 east_luna_2"/>
    </vehicle>
    <vehicle id="ieast_recto_0.0" depart="0.00">
        <route edges="east_recto_0 east_recto_1 east_recto_2 east_recto_3"/>
    </vehicle>
    <vehicle id="ieast_recto_1.0" depart="0.00">
        <route edges="east_recto_1 east_recto_2 east_recto_3"/>
    </vehicle>
    <vehicle id="ieast_recto_2.0" depart="0.00">
        <route edges="east_recto_2 east_recto_3"/>
    </vehicle>
    <vehicle id="inorth_corrales_0.0" depart="0.00">
        <route edges="north_corrales_0 north_corrales_1 north_corrales_2"/>
    </vehicle>
    <vehicle id="inorth_corrales_1.0" depart="0.00">
        <route edges="north_corrales_1 north_corrales_2"/>
    </vehicle>
    <vehicle id="inorth_osmena_0.0" depart="0.00">
        <route edges="north_osmena_0 north_osmena_1 north_osmena_2 east_luna_0 north_roa_1"/>
    </vehicle>
    <vehicle id="inorth_osmena_1.0" depart="0.00">
        <route edges="north_osmena_1 north_osmena_2 north_osmena_3"/>
    </vehicle>
    <vehicle id="inorth_osmena_2.0" depart="0.00">
        <route edges="north_osmena_2 east_luna_0 east_luna_1 east_luna_2"/>
    </vehicle>
    <vehicle id="inorth_roa_0.0" depart="0.00">
        <route edges="north_roa_0 north_roa_1"/>
    </vehicle>
    <vehicle id="isouth_corrales_0.0" depart="0.00">
        <route edges="south_corrales_0 west_luna_1 west_luna_2 south_osmena_1 south_osmena_2 south_osmena_3"/>
    </vehicle>
    <vehicle id="isouth_corrales_1.0" depart="0.00">
        <route edges="south_corrales_1 south_corrales_2"/>
    </vehicle>
    <vehicle id="isouth_osmena_0.0" depart="0.00">
        <route edges="south_osmena_0 east_luna_0 east_luna_1 south_corrales_1 east_recto_3"/>
    </vehicle>
    <vehicle id="isouth_osmena_1.0" depart="0.00">
        <route edges="south_osmena_1 west_florentino_0"/>
    </vehicle>
    <vehicle id="isouth_osmena_2.0" depart="0.00">
        <route edges="south_osmena_2 east_recto_1 east_recto_2 east_recto_3"/>
    </vehicle>
    <vehicle id="isouth_roa_0.0" depart="0.00">
        <route edges="south_roa_0 east_luna_1 east_luna_2"/>
    </vehicle>
    <vehicle id="isouth_roa_1.0" depart="0.00">
        <route edges="south_roa_1 west_recto_2 west_recto_3"/>
    </vehicle>
    <vehicle id="iwest_luna_0.0" depart="0.00">
        <route edges="west_luna_0 north_corrales_2"/>
    </vehicle>
    <vehicle id="iwest_luna_1.0" depart="0.00">
        <route edges="west_luna_1 south_roa_1 west_recto_2 west_recto_3"/>
    </vehicle>
    <vehicle id="iwest_luna_2.0" depart="0.00">
        <route edges="west_luna_2 north_osmena_3"/>
    </vehicle>
    <vehicle id="iwest_recto_0.0" depart="0.00">
        <route edges="west_recto_0 west_recto_1 north_roa_0 north_roa_1"/>
    </vehicle>
    <vehicle id="iwest_recto_1.0" depart="0.00">
        <route edges="west_recto_1 west_recto_2 west_recto_3"/>
    </vehicle>
    <vehicle id="iwest_recto_2.0" depart="0.00">
        <route edges="west_recto_2 west_recto_3"/>
    </vehicle>
    <vehicle id="iwest_recto_2.1" depart="34.95">
        <route edges="west_recto_2 west_recto_3"/>
    </vehicle>
    <vehicle id="isouth_osmena_1.1" depart="46.15">
        <route edges="south_osmena_1 west_florentino_0"/>
    </vehicle>
    <vehicle id="ieast_recto_0.1" depart="48.65">
        <route edges="east_recto_0 east_recto_1 east_recto_2 east_recto_3"/>
    </vehicle>
    <vehicle id="iwest_recto_1.1" depart="52.94">
        <route edges="west_recto_1 north_roa_0 west_luna_2 north_osmena_3"/>
    </vehicle>
    <vehicle id="ieast_recto_1.1" depart="55.38">
        <route edges="east_recto_1 east_recto_2 east_recto_3"/>
    </vehicle>
    <vehicle id="inorth_osmena_1.1" depart="60.00">
        <route edges="north_osmena_1 north_osmena_2 north_osmena_3"/>
    </vehicle>
    <vehicle id="inorth_osmena_2.1" depart="62.07">
        <route edges="north_osmena_2 north_osmena_3"/>
    </vehicle>
    <vehicle id="iwest_luna_1.1" depart="69.23">
        <route edges="west_luna_1 west_luna_2 north_osmena_3"/>
    </vehicle>
    <vehicle id="iwest_recto_2.2" depart="69.90">
        <route edges="west_recto_2 south_osmena_3"/>
    </vehicle>
    <vehicle id="ieast_luna_0.1" depart="80.00">
        <route edges="east_luna_0 south_roa_1 west_recto_2 west_recto_3"/>
    </vehicle>
    <vehicle id="isouth_roa_0.1" depart="90.00">
        <route edges="south_roa_0 east_luna_1 east_luna_2"/>
    </vehicle>
    <vehicle id="isouth_osmena_1.2" depart="92.31">
        <route edges="south_osmena_1 south_osmena_2 east_recto_1 east_recto_2 east_recto_3"/>
    </vehicle>
    <vehicle id="ieast_recto_0.2" depart="97.30">
        <route edges="east_recto_0 east_recto_1 east_recto_2 east_recto_3"/>
    </vehicle>
    <vehicle id="iwest_recto_2.3" depart="104.85">
        <route edges="west_recto_2 south_osmena_3"/>
    </vehicle>
    <vehicle id="iwest_recto_1.2" depart="105.88">
        <route edges="west_recto_1 west_recto_2 west_recto_3"/>
    </vehicle>
    <vehicle id="ieast_recto_1.2" depart="110.77">
        <route edges="east_recto_1 east_recto_2 east_recto_3"/>
    </vehicle>
    <vehicle id="inorth_osmena_1.2" depart="120.00">
        <route edges="north_osmena_1 north_osmena_2 north_osmena_3"/>
    </vehicle>
    <vehicle id="iwest_recto_0.1" depart="120.00">
        <route edges="west_recto_0 west_recto_1 west_recto_2 west_recto_3"/>
    </vehicle>
    <vehicle id="inorth_osmena_2.2" depart="124.14">
        <route edges="north_osmena_2 north_osmena_3"/>
    </vehicle>
    <vehicle id="isouth_osmena_0.1" depart="124.14">
        <route edges="south_osmena_0 east_luna_0 east_luna_1 east_luna_2"/>
    </vehicle>
    <vehicle id="isouth_osmena_2.1" depart="124.14">
        <route edges="south_osmena_2 west_recto_3"/>
    </vehicle>
    <vehicle id="isouth_osmena_1.3" depart="138.46">
        <route edges="south_osmena_1 south_osmena_2 west_recto_3"/>
    </vehicle>
    <vehicle id="iwest_luna_1.2" depart="138.46">
        <route edges="west_luna_1 west_luna_2 north_osmena_3"/>
    </vehicle>
    <vehicle id="inorth_roa_0.1" depart="138.46">
        <route edges="north_roa_0 north_roa_1"/>
    </vehicle>
    <vehicle id="iwest_recto_2.4" depart="139.80">
        <route edges="west_recto_2 west_recto_3"/>
    </vehicle>
    <vehicle id="ieast_recto_0.3" depart="145.94">
        <route edges="east_recto_0 east_recto_1 east_recto_2 south_corrales_2"/>
    </vehicle>
    <vehicle id="iwest_recto_1.3" depart="158.82">
        <route edges="west_recto_1 west_recto_2 west_recto_3"/>
    </vehicle>
    <vehicle id="ieast_luna_0.2" depart="160.00">
        <route edges="east_luna_0 east_luna_1 south_corrales_1 east_recto_3"/>
    </vehicle>
    <vehicle id="ieast_recto_2.1" depart="163.64">
        <route edges="east_recto_2 east_recto_3"/>
    </vehicle>
    <vehicle id="isouth_corrales_0.1" depart="163.64">
        <route edges="south_corrales_0 south_corrales_1 west_recto_1 west_recto_2 west_recto_3"/>
    </vehicle>
    <vehicle id="ieast_recto_1.3" depart="166.15">
        <route edges="east_recto_1 east_recto_2 east_recto_3"/>
    </vehicle>
    <vehicle id="inorth_corrales_1.1" depart="171.43">
        <route edges="north_corrales_1 north_corrales_2"/>
    </vehicle>
    <vehicle id="iwest_recto_2.5" depart="174.76">
        <route edges="west_recto_2 west_recto_3"/>
    </vehicle>
    <vehicle id="inorth_osmena_1.3" depart="180.00">
        <route edges="north_osmena_1 north_osmena_2 north_osmena_3"/>
    </vehicle>
    <vehicle id="isouth_roa_0.2" depart="180.00">
        <route edges="south_roa_0 east_luna_1 east_luna_2"/>
    </vehicle>
    <vehicle id="isouth_osmena_1.4" depart="184.61">
        <route edges="south_osmena_1 south_osmena_2 west_recto_3"/>
    </vehicle>
    <vehicle id="inorth_osmena_2.3" depart="186.20">
        <route edges="north_osmena_2 north_osmena_3"/>
    </vehicle>
    <vehicle id="ieast_recto_0.4" depart="194.59">
        <route edges="east_recto_0 east_recto_1 east_recto_2 east_recto_3"/>
    </vehicle>
    <vehicle id="inorth_osmena_0.1" depart="200.00">
        <route edges="north_osmena_0 north_osmena_1 north_osmena_2 north_osmena_3"/>
    </vehicle>
    <vehicle id="iwest_luna_1.3" depart="207.69">
        <route edges="west_luna_1 south_roa_1 west_recto_2 west_recto_3"/>
    </vehicle>
    <vehicle id="iwest_recto_2.6" depart="209.71">
        <route edges="west_recto_2 west_recto_3"/>
    </vehicle>
    <vehicle id="iwest_recto_1.4" depart="211.76">
        <route edges="west_recto_1 west_recto_2 north_osmena_1 north_osmena_2 north_osmena_3"/>
    </vehicle>
    <vehicle id="ieast_recto_1.4" depart="221.54">
        <route edges="east_recto_1 east_recto_2 north_corrales_1 north_corrales_2"/>
    </vehicle>
    <vehicle id="isouth_osmena_1.5" depart="230.77">
        <route edges="south_osmena_1 south_osmena_2 west_recto_3"/>
    </vehicle>
    <vehicle id="ieast_luna_0.3" depart="240.00">
        <route edges="east_luna_0 north_roa_1"/>
    </vehicle>
    <vehicle id="inorth_osmena_1.4" depart="240.00">
        <route edges="north_osmena_1 north_osmena_2 north_osmena_3"/>
    </vehicle>
    <vehicle id="iwest_recto_0.2" depart="240.00">
        <route edges="west_recto_0 west_recto_1 west_recto_2 west_recto_3"/>
    </vehicle>
    <vehicle id="ieast_recto_0.5" depart="243.24">
        <route edges="east_recto_0 east_recto_1 east_recto_2 east_recto_3"/>
    </vehicle>
    <vehicle id="iwest_recto_2.7" depart="244.66">
        <route edges="west_recto_2 west_recto_3"/>
    </vehicle>
    <vehicle id="inorth_osmena_2.4" depart="248.27">
        <route edges="north_osmena_2 north_osmena_3"/>
    </vehicle>
    <vehicle id="isouth_osmena_0.2" depart="248.27">
        <route edges="south_osmena_0 east_luna_0 east_luna_1 south_corrales_1 south_corrales_2"/>
    </vehicle>
    <vehicle id="isouth_osmena_2.2" depart="248.27">
        <route edges="south_osmena_2 east_recto_1 east_recto_2 north_corrales_1 north_corrales_2"/>
    </vehicle>
    <vehicle id="iwest_recto_1.5" depart="264.71">
        <route edges="west_recto_1 west_recto_2 west_recto_3"/>
    </vehicle>
    <vehicle id="isouth_roa_0.3" depart="270.00">
        <route edges="south_roa_0 west_luna_2 south_osmena_1 south_osmena_2 west_recto_3"/>
    </vehicle>
    <vehicle id="isouth_osmena_1.6" depart="276.92">
        <route edges="south_osmena_1 south_osmena_2 east_recto_1 east_recto_2 east_recto_3"/>
    </vehicle>
    <vehicle id="ieast_recto_1.5" depart="276.92">
        <route edges="east_recto_1 east_recto_2 east_recto_3"/>
    </vehicle>
    <vehicle id="iwest_luna_1.4" depart="276.92">
        <route edges="west_luna_1 west_luna_2 north_osmena_3"/>
    </vehicle>
    <vehicle id="inorth_roa_0.2" depart="276.92">
        <route edges="north_roa_0 west_luna_2 north_osmena_3"/>
    </vehicle>
    <vehicle id="iwest_recto_2.8" depart="279.61">
        <route edges="west_recto_2 west_recto_3"/>
    </vehicle>
    <vehicle id="ieast_recto_0.6" depart="291.89">
        <route edges="east_recto_0 east_recto_1 east_recto_2 east_recto_3"/>
    </vehicle>
    <vehicle id="inorth_osmena_1.5" depart="300.00">
        <route edges="north_osmena_1 north_osmena_2 north_osmena_3"/>
    </vehicle>
    <vehicle id="inorth_osmena_2.5" depart="310.34">
        <route edges="north_osmena_2 north_osmena_3"/>
    </vehicle>
    <vehicle id="iwest_recto_2.9" depart="314.56">
        <route edges="west_recto_2 south_osmena_3"/>
    </vehicle>
    <vehicle id="iwest_recto_1.6" depart="317.65">
        <route edges="west_recto_1 west_recto_2 west_recto_3"/>
    </vehicle>
    <vehicle id="ieast_luna_0.4" depart="320.00">
        <route edges="east_luna_0 east_luna_1 south_corrales_1 south_corrales_2"/>
    </vehicle>
    <vehicle id="isouth_osmena_1.7" depart="323.07">
        <route edges="south_osmena_1 south_osmena_2 east_recto_1 east_recto_2 east_recto_3"/>
    </vehicle>
    <vehicle id="ieast_recto_2.2" depart="327.27">
        <route edges="east_recto_2 north_corrales_1 north_corrales_2"/>
    </vehicle>
    <vehicle id="isouth_corrales_0.2" depart="327.27">
        <route edges="south_corrales_0 south_corrales_1 south_corrales_2"/>
    </vehicle>
    <vehicle id="ieast_recto_1.6" depart="332.30">
        <route edges="east_recto_1 east_recto_2 east_recto_3"/>
    </vehicle>
    <vehicle id="ieast_recto_0.7" depart="340.54">
        <route edges="east_recto_0 east_recto_1 east_recto_2 east_recto_3"/>
    </vehicle>
    <vehicle id="inorth_corrales_1.2" depart="342.86">
        <route edges="north_corrales_1 north_corrales_2"/>
    </vehicle>
    <vehicle id="iwest_luna_1.5" depart="346.15">
        <route edges="west_luna_1 north_roa_1"/>
    </vehicle>
    <vehicle id="iwest_recto_2.10" depart="349.51">
        <route edges="west_recto_2 west_recto_3"/>
    </vehicle>
    <vehicle id="ieast_luna_1.1" depart="360.00">
        <route edges="east_luna_1 east_luna_2"/>
    </vehicle>
    <vehicle id="inorth_osmena_1.6" depart="360.00">
        <route edges="north_osmena_1 north_osmena_2 east_luna_0 east_luna_1 south_corrales_1 west_recto_1 west_recto_2 west_recto_3"/>
    </vehicle>
    <vehicle id="isouth_corrales_1.1" depart="360.00">
        <route edges="south_corrales_1 west_recto_1 west_recto_2 north_osmena_1 north_osmena_2 east_luna_0 east_luna_1 east_luna_2"/>
    </vehicle>
    <vehicle id="isouth_roa_0.4" depart="360.00">
        <route edges="south_roa_0 south_roa_1 west_recto_2 west_recto_3"/>
    </vehicle>
    <vehicle id="iwest_luna_0.1" depart="360.00">
        <route edges="west_luna_0 north_corrales_2"/>
    </vehicle>
    <vehicle id="iwest_recto_0.3" depart="360.00">
        <route edges="west_recto_0 west_recto_1 west_recto_2 south_osmena_3"/>
    </vehicle>
    <vehicle id="isouth_osmena_1.8" depart="369.22">
        <route edges="south_osmena_1 south_osmena_2 east_recto_1 east_recto_2 east_recto_3"/>
    </vehicle>
    <vehicle id="iwest_recto_1.7" depart="370.59">
        <route edges="west_recto_1 west_recto_2 west_recto_3"/>
    </vehicle>
    <vehicle id="inorth_osmena_2.6" depart="372.41">
        <route edges="north_osmena_2 north_osmena_3"/>
    </vehicle>
    <vehicle id="isouth_osmena_0.3" depart="372.41">
        <route edges="south_osmena_0 south_osmena_1 south_osmena_2 east_recto_1 east_recto_2 east_recto_3"/>
    </vehicle>
    <vehicle id="isouth_osmena_2.3" depart="372.41">
        <route edges="south_osmena_2 east_recto_1 east_recto_2 east_recto_3"/>
    </vehicle>
    <vehicle id="iwest_recto_2.11" depart="384.46">
        <route edges="west_recto_2 west_recto_3"/>
    </vehicle>
    <vehicle id="ieast_recto_1.7" depart="387.69">
        <route edges="east_recto_1 east_recto_2 east_recto_3"/>
    </vehicle>
    <vehicle id="ieast_recto_0.8" depart="389.18">
        <route edges="east_recto_0 east_recto_1 east_recto_2 east_recto_3"/>
    </vehicle>
    <vehicle id="ieast_luna_0.5" depart="400.00">
        <route edges="east_luna_0 east_luna_1 east_luna_2"/>
    </vehicle>
    <vehicle id="inorth_corrales_0.1" depart="400.00">
        <route edges="north_corrales_0 north_corrales_1 north_corrales_2"/>
    </vehicle>
    <vehicle id="inorth_osmena_0.2" depart="400.00">
        <route edges="north_osmena_0 north_osmena_1 north_osmena_2 north_osmena_3"/>
    </vehicle>
    <vehicle id="isouth_osmena_1.9" depart="415.38">
        <route edges="south_osmena_1 south_osmena_2 south_osmena_3"/>
    </vehicle>
    <vehicle id="iwest_luna_1.6" depart="415.38">
        <route edges="west_luna_1 west_luna_2 north_osmena_3"/>
    </vehicle>
    <vehicle id="inorth_roa_0.3" depart="415.38">
        <route edges="north_roa_0 east_luna_1 east_luna_2"/>
    </vehicle>
    <vehicle id="iwest_recto_2.12" depart="419.41">
        <route edges="west_recto_2 west_recto_3"/>
    </vehicle>
    <vehicle id="inorth_osmena_1.7" depart="420.00">
        <route edges="north_osmena_1 north_osmena_2 north_osmena_3"/>
    </vehicle>
    <vehicle id="iwest_recto_1.8" depart="423.53">
        <route edges="west_recto_1 west_recto_2 west_recto_3"/>
    </vehicle>
    <vehicle id="inorth_osmena_2.7" depart="434.48">
        <route edges="north_osmena_2 north_osmena_3"/>
    </vehicle>
    <vehicle id="ieast_recto_0.9" depart="437.83">
        <route edges="east_recto_0 east_recto_1 east_recto_2 east_recto_3"/>
    </vehicle>
    <vehicle id="ieast_recto_1.8" depart="443.07">
        <route edges="east_recto_1 east_recto_2 east_recto_3"/>
    </vehicle>
    <vehicle id="isouth_roa_0.5" depart="450.00">
        <route edges="south_roa_0 west_luna_2 south_osmena_1 south_osmena_2 west_recto_3"/>
    </vehicle>
    <vehicle id="iwest_recto_2.13" depart="454.36">
        <route edges="west_recto_2 north_osmena_1 north_osmena_2 north_osmena_3"/>
    </vehicle>
    <vehicle id="isouth_osmena_1.10" depart="461.53">
        <route edges="south_osmena_1 south_osmena_2 east_recto_1 east_recto_2 north_corrales_1 north_corrales_2"/>
    </vehicle>
    <vehicle id="iwest_recto_1.9" depart="476.47">
        <route edges="west_recto_1 west_recto_2 south_osmena_3"/>
    </vehicle>
    <vehicle id="ieast_luna_0.6" depart="480.00">
        <route edges="east_luna_0 north_roa_1"/>
    </vehicle>
    <vehicle id="inorth_osmena_1.8" depart="480.00">
        <route edges="north_osmena_1 north_osmena_2 north_osmena_3"/>
    </vehicle>
    <vehicle id="iwest_recto_0.4" depart="480.00">
        <route edges="west_recto_0 west_recto_1 west_recto_2 west_recto_3"/>
    </vehicle>
    <vehicle id="iwest_luna_1.7" depart="484.61">
        <route edges="west_luna_1 west_luna_2 south_osmena_1 south_osmena_2 west_recto_3"/>
    </vehicle>
    <vehicle id="ieast_recto_0.10" depart="486.48">
        <route edges="east_recto_0 north_osmena_1 north_osmena_2 north_osmena_3"/>
    </vehicle>
    <vehicle id="iwest_recto_2.14" depart="489.31">
        <route edges="west_recto_2 north_osmena_1 north_osmena_2 north_osmena_3"/>
    </vehicle>
    <vehicle id="ieast_recto_2.3" depart="490.91">
        <route edges="east_recto_2 north_corrales_1 north_corrales_2"/>
    </vehicle>
    <vehicle id="isouth_corrales_0.3" depart="490.91">
        <route edges="south_corrales_0 south_corrales_1 west_recto_1 west_recto_2 north_osmena_1 west_florentino_0"/>
    </vehicle>
    <vehicle id="inorth_osmena_2.8" depart="496.54">
        <route edges="north_osmena_2 north_osmena_3"/>
    </vehicle>
    <vehicle id="isouth_osmena_0.4" depart="496.55">
        <route edges="south_osmena_0 east_luna_0 east_luna_1 east_luna_2"/>
    </vehicle>
    <vehicle id="isouth_osmena_2.4" depart="496.55">
        <route edges="south_osmena_2 east_recto_1 east_recto_2 east_recto_3"/>
    </vehicle>
    <vehicle id="ieast_recto_1.9" depart="498.46">
        <route edges="east_recto_1 east_recto_2 east_recto_3"/>
    </vehicle>
    <vehicle id="isouth_osmena_1.11" depart="507.68">
        <route edges="south_osmena_1 west_florentino_0"/>
    </vehicle>
    <vehicle id="inorth_corrales_1.3" depart="514.28">
        <route edges="north_corrales_1 north_corrales_2"/>
    </vehicle>
    <vehicle id="iwest_recto_2.15" depart="524.27">
        <route edges="west_recto_2 west_recto_3"/>
    </vehicle>
    <vehicle id="iwest_recto_1.10" depart="529.41">
        <route edges="west_recto_1 west_recto_2 west_recto_3"/>
    </vehicle>
    <vehicle id="ieast_recto_0.11" depart="535.13">
        <route edges="east_recto_0 east_recto_1 east_recto_2 east_recto_3"/>
    </vehicle>
    <vehicle id="inorth_osmena_1.9" depart="540.00">
        <route edges="north_osmena_1 north_osmena_2 east_luna_0 east_luna_1 east_luna_2"/>
    </vehicle>
    <vehicle id="isouth_roa_0.6" depart="540.00">
        <route edges="south_roa_0 east_luna_1 east_luna_2"/>
    </vehicle>
    <vehicle id="isouth_osmena_1.12" depart="553.84">
        <route edges="south_osmena_1 south_osmena_2 east_recto_1 east_recto_2 east_recto_3"/>
    </vehicle>
    <vehicle id="ieast_recto_1.10" depart="553.84">
        <route edges="east_recto_1 east_recto_2 south_corrales_2"/>
    </vehicle>
    <vehicle id="iwest_luna_1.8" depart="553.84">
        <route edges="west_luna_1 north_roa_1"/>
    </vehicle>
    <vehicle id="inorth_roa_0.4" depart="553.84">
        <route edges="north_roa_0 west_luna_2 south_osmena_1 south_osmena_2 south_osmena_3"/>
    </vehicle>
    <vehicle id="inorth_osmena_2.9" depart="558.61">
        <route edges="north_osmena_2 north_osmena_3"/>
    </vehicle>
    <vehicle id="iwest_recto_2.16" depart="559.22">
        <route edges="west_recto_2 west_recto_3"/>
    </vehicle>
    <vehicle id="ieast_luna_0.7" depart="560.00">
        <route edges="east_luna_0 east_luna_1 east_luna_2"/>
    </vehicle>
    <vehicle id="iwest_recto_1.11" depart="582.35">
        <route edges="west_recto_1 west_recto_2 south_osmena_3"/>
    </vehicle>
    <vehicle id="ieast_recto_0.12" depart="583.78">
        <route edges="east_recto_0 north_osmena_1 west_florentino_0"/>
    </vehicle>
    <vehicle id="iwest_recto_2.17" depart="594.17">
        <route edges="west_recto_2 west_recto_3"/>
    </vehicle>
    <vehicle id="isouth_osmena_1.13" depart="599.99">
        <route edges="south_osmena_1 south_osmena_2 west_recto_3"/>
    </vehicle>
    <vehicle id="ieast_florentino_0.1" depart="600.00">
        <route edges="east_florentino_0 south_osmena_2 south_osmena_3"/>
    </vehicle>
    <vehicle id="inorth_osmena_0.3" depart="600.00">
        <route edges="north_osmena_0 north_osmena_1 north_osmena_2 north_osmena_3"/>
    </vehicle>
    <vehicle id="inorth_osmena_1.10" depart="600.00">
        <route edges="north_osmena_1 west_florentino_0"/>
    </vehicle>
    <vehicle id="iwest_luna_2.1" depart="600.00">
        <route edges="west_luna_2 south_osmena_1 south_osmena_2 west_recto_3"/>
    </vehicle>
    <vehicle id="iwest_recto_0.5" depart="600.00">
        <route edges="west_recto_0 south_corrales_2"/>
    </vehicle>
    <vehicle id="ieast_recto_1.11" depart="609.22">
        <route edges="east_recto_1 east_recto_2 east_recto_3"/>
    </vehicle>
    <vehicle id="inorth_osmena_2.10" depart="620.68">
        <route edges="north_osmena_2 east_luna_0 north_roa_1"/>
    </vehicle>
    <vehicle id="isouth_osmena_0.5" depart="620.69">
        <route edges="south_osmena_0 south_osmena_1 south_osmena_2 east_recto_1 east_recto_2 south_corrales_2"/>
    </vehicle>
    <vehicle id="isouth_osmena_2.5" depart="620.69">
        <route edges="south_osmena_2 west_recto_3"/>
    </vehicle>
    <vehicle id="iwest_luna_1.9" depart="623.07">
        <route edges="west_luna_1 west_luna_2 south_osmena_1 south_osmena_2 south_osmena_3"/>
    </vehicle>
    <vehicle id="iwest_recto_2.18" depart="629.12">
        <route edges="west_recto_2 south_osmena_3"/>
    </vehicle>
    <vehicle id="isouth_roa_0.7" depart="630.00">
        <route edges="south_roa_0 west_luna_2 south_osmena_1 south_osmena_2 south_osmena_3"/>
    </vehicle>
    <vehicle id="ieast_recto_0.13" depart="632.42">
        <route edges="east_recto_0 east_recto_1 east_recto_2 east_recto_3"/>
    </vehicle>
    <vehicle id="iwest_recto_1.12" depart="635.29">
        <route edges="west_recto_1 north_roa_0 north_roa_1"/>
    </vehicle>
    <vehicle id="ieast_luna_0.8" depart="640.00">
        <route edges="east_luna_0 east_luna_1 south_corrales_1 east_recto_3"/>
    </vehicle>
    <vehicle id="isouth_osmena_1.14" depart="646.14">
        <route edges="south_osmena_1 south_osmena_2 east_recto_1 east_recto_2 north_corrales_1 north_corrales_2"/>
    </vehicle>
    <vehicle id="ieast_recto_2.4" depart="654.54">
        <route edges="east_recto_2 east_recto_3"/>
    </vehicle>
    <vehicle id="isouth_corrales_0.4" depart="654.54">
        <route edges="south_corrales_0 south_corrales_1 east_recto_3"/>
    </vehicle>
    <vehicle id="inorth_osmena_1.11" depart="660.00">
        <route edges="north_osmena_1 north_osmena_2 north_osmena_3"/>
    </vehicle>
    <vehicle id="iwest_recto_2.19" depart="664.07">
        <route edges="west_recto_2 north_osmena_1 north_osmena_2 north_osmena_3"/>
    </vehicle>
    <vehicle id="ieast_recto_1.12" depart="664.61">
        <route edges="east_recto_1 east_recto_2 east_recto_3"/>
    </vehicle>
    <vehicle id="ieast_recto_0.14" depart="681.07">
        <route edges="east_recto_0 north_osmena_1 west_florentino_0"/>
    </vehicle>
    <vehicle id="inorth_osmena_2.11" depart="682.75">
        <route edges="north_osmena_2 north_osmena_3"/>
    </vehicle>
    <vehicle id="inorth_corrales_1.4" depart="685.71">
        <route edges="north_corrales_1 north_corrales_2"/>
    </vehicle>
    <vehicle id="iwest_recto_1.13" depart="688.23">
        <route edges="west_recto_1 west_recto_2 west_recto_3"/>
    </vehicle>
    <vehicle id="isouth_osmena_1.15" depart="692.30">
        <route edges="south_osmena_1 west_florentino_0"/>
    </vehicle>
    <vehicle id="iwest_luna_1.10" depart="692.30">
        <route edges="west_luna_1 west_luna_2 south_osmena_1 south_osmena_2 west_recto_3"/>
    </vehicle>
    <vehicle id="inorth_roa_0.5" depart="692.31">
        <route edges="north_roa_0 north_roa_1"/>
    </vehicle>
    <vehicle id="iwest_recto_2.20" depart="699.02">
        <route edges="west_recto_2 west_recto_3"/>
    </vehicle>
    <vehicle id="ieast_recto_1.13" depart="719.99">
        <route edges="east_recto_1 east_recto_2 east_recto_3"/>
    </vehicle>
    <vehicle id="ieast_luna_0.9" depart="720.00">
        <route edges="east_luna_0 east_luna_1 south_corrales_1 south_corrales_2"/>
    </vehicle>
    <vehicle id="ieast_luna_1.2" depart="720.00">
        <route edges="east_luna_1 south_corrales_1 south_corrales_2"/>
    </vehicle>
    <vehicle id="inorth_osmena_1.12" depart="720.00">
        <route edges="north_osmena_1 north_osmena_2 north_osmena_3"/>
    </vehicle>
    <vehicle id="isouth_corrales_1.2" depart="720.00">
        <route edges="south_corrales_1 south_corrales_2"/>
    </vehicle>
    <vehicle id="isouth_roa_0.8" depart="720.00">
        <route edges="south_roa_0 south_roa_1 west_recto_2 south_osmena_3"/>
    </vehicle>
    <vehicle id="iwest_luna_0.2" depart="720.00">
        <route edges="west_luna_0 west_luna_1 west_luna_2 south_osmena_1 south_osmena_2 west_recto_3"/>
    </vehicle>
    <vehicle id="iwest_recto_0.6" depart="720.00">
        <route edges="west_recto_0 west_recto_1 west_recto_2 west_recto_3"/>
    </vehicle>
    <vehicle id="ieast_recto_0.15" depart="729.72">
        <route edges="east_recto_0 east_recto_1 east_recto_2 east_recto_3"/>
    </vehicle>
    <vehicle id="iwest_recto_2.21" depart="733.97">
        <route edges="west_recto_2 west_recto_3"/>
    </vehicle>
    <vehicle id="isouth_osmena_1.16" depart="738.45">
        <route edges="south_osmena_1 south_osmena_2 south_osmena_3"/>
    </vehicle>
    <vehicle id="iwest_recto_1.14" depart="741.17">
        <route edges="west_recto_1 west_recto_2 west_recto_3"/>
    </vehicle>
    <vehicle id="inorth_osmena_2.12" depart="744.82">
        <route edges="north_osmena_2 north_osmena_3"/>
    </vehicle>
    <vehicle id="isouth_osmena_0.6" depart="744.82">
        <route edges="south_osmena_0 east_luna_0 east_luna_1 south_corrales_1 south_corrales_2"/>
    </vehicle>
    <vehicle id="isouth_osmena_2.6" depart="744.82">
        <route edges="south_osmena_2 south_osmena_3"/>
    </vehicle>
    <vehicle id="iwest_luna_1.11" depart="761.53">
        <route edges="west_luna_1 north_roa_1"/>
    </vehicle>
    <vehicle id="iwest_recto_2.22" depart="768.92">
        <route edges="west_recto_2 west_recto_3"/>
    </vehicle>
    <vehicle id="ieast_recto_1.14" depart="775.38">
        <route edges="east_recto_1 east_recto_2 east_recto_3"/>
    </vehicle>
    <vehicle id="ieast_recto_0.16" depart="778.37">
        <route edges="east_recto_0 east_recto_1 east_recto_2 north_corrales_1 east_luna_2"/>
    </vehicle>
    <vehicle id="inorth_osmena_1.13" depart="780.00">
        <route edges="north_osmena_1 north_osmena_2 north_osmena_3"/>
    </vehicle>
    <vehicle id="isouth_osmena_1.17" depart="784.60">
        <route edges="south_osmena_1 west_florentino_0"/>
    </vehicle>
    <vehicle id="iwest_recto_1.15" depart="794.12">
        <route edges="west_recto_1 west_recto_2 west_recto_3"/>
    </vehicle>
    <vehicle id="ieast_luna_0.10" depart="800.00">
        <route edges="east_luna_0 north_roa_1"/>
    </vehicle>
    <vehicle id="inorth_corrales_0.2" depart="800.00">
        <route edges="north_corrales_0 west_recto_1 north_roa_0 north_roa_1"/>
    </vehicle>
    <vehicle id="inorth_osmena_0.4" depart="800.00">