<?xml version="1.0" encoding="UTF-8"?>

<!-- generated on 2023-03-31 17:21:38 by Eclipse SUMO netedit Version 1.15.0
<configuration xmlns:xsi="http://www.w3.org/2001/XMLSchema-instance" xsi:noNamespaceSchemaLocation="http://sumo.dlr.de/xsd/netconvertConfiguration.xsd">

    <input>
        <sumo-net-file value="D:\School Documents\Thesis\DQL_AveEntLumRei\Simulation_Environment\Main MADDPG\osm.net.xml"/>
    </input>

    <output>
        <output-file value="D:\School Documents\Thesis\DQL_AveEntLumRei\Simulation_Environment\Main MADDPG\osm.net.xml"/>
        <output.street-names value="true"/>
    </output>

    <processing>
        <geometry.min-radius.fix.railways value="false"/>
        <geometry.max-grade.fix value="false"/>
        <offset.disable-normalization value="true"/>
        <lefthand value="0"/>
    </processing>

    <junctions>
        <no-turnarounds value="true"/>
        <junctions.corner-detail value="5"/>
        <junctions.limit-turn-speed value="5.50"/>
        <rectangular-lane-cut value="0"/>
    </junctions>

    <pedestrian>
        <walkingareas value="0"/>
    </pedestrian>

</configuration>
-->

<net version="1.9" junctionCornerDetail="5" limitTurnSpeed="5.50" xmlns:xsi="http://www.w3.org/2001/XMLSchema-instance" xsi:noNamespaceSchemaLocation="http://sumo.dlr.de/xsd/net_file.xsd">

    <location netOffset="-680716.80,-937251.29" convBoundary="728.72,669.78,1506.41,1294.14" origBoundary="124.641664,8.475486,124.656136,8.490905" projParameter="+proj=utm +zone=51 +ellps=WGS84 +datum=WGS84 +units=m +no_defs"/>

    <type id="edgeType_0"/>
    <type id="highway.bridleway" priority="1" numLanes="1" speed="2.78" allow="pedestrian" oneway="1" width="2.00"/>
    <type id="highway.bus_guideway" priority="1" numLanes="1" speed="27.78" allow="bus" oneway="1"/>
    <type id="highway.cycleway" priority="1" numLanes="1" speed="8.33" allow="bicycle" oneway="1" width="1.00"/>
    <type id="highway.footway" priority="1" numLanes="1" speed="2.78" allow="pedestrian" oneway="1" width="2.00"/>
    <type id="highway.ford" priority="1" numLanes="1" speed="2.78" allow="army" oneway="1"/>
    <type id="highway.living_street" priority="2" numLanes="1" speed="2.78" disallow="tram rail_urban rail rail_electric rail_fast ship" oneway="1"/>
    <type id="highway.motorway" priority="14" numLanes="2" speed="39.44" allow="private emergency authority army vip passenger hov taxi bus coach delivery truck trailer motorcycle evehicle custom1 custom2" oneway="1"/>
    <type id="highway.motorway_link" priority="9" numLanes="1" speed="22.22" allow="private emergency authority army vip passenger hov taxi bus coach delivery truck trailer motorcycle evehicle custom1 custom2" oneway="1"/>
    <type id="highway.path" priority="1" numLanes="1" speed="2.78" allow="pedestrian bicycle" oneway="1" width="2.00"/>
    <type id="highway.pedestrian" priority="1" numLanes="1" speed="2.78" allow="pedestrian" oneway="1" width="2.00"/>
    <type id="highway.primary" priority="12" numLanes="2" speed="27.78" disallow="tram rail_urban rail rail_electric rail_fast ship" oneway="1"/>
    <type id="highway.primary_link" priority="7" numLanes="1" speed="22.22" disallow="tram rail_urban rail rail_electric rail_fast ship" oneway="1"/>
    <type id="highway.raceway" priority="15" numLanes="2" speed="83.33" allow="vip" oneway="1"/>
    <type id="highway.residential" priority="3" numLanes="1" speed="13.89" disallow="tram rail_urban rail rail_electric rail_fast ship" oneway="1"/>
    <type id="highway.secondary" priority="11" numLanes="2" speed="27.78" disallow="tram rail_urban rail rail_electric rail_fast ship" oneway="1">
        <laneType index="0"/>
        <laneType index="1" speed="13.89"/>
    </type>
    <type id="highway.secondary_link" priority="6" numLanes="1" speed="22.22" disallow="tram rail_urban rail rail_electric rail_fast ship" oneway="1"/>
    <type id="highway.service" priority="1" numLanes="1" speed="5.56" allow="pedestrian delivery bicycle" oneway="1"/>
    <type id="highway.stairs" priority="1" numLanes="1" speed="1.39" allow="pedestrian" oneway="1" width="2.00"/>
    <type id="highway.step" priority="1" numLanes="1" speed="1.39" allow="pedestrian" oneway="1" width="2.00"/>
    <type id="highway.steps" priority="1" numLanes="1" speed="1.39" allow="pedestrian" oneway="1" width="2.00"/>
    <type id="highway.tertiary" priority="10" numLanes="2" speed="22.22" disallow="tram rail_urban rail rail_electric rail_fast ship" oneway="1">
        <laneType index="0"/>
        <laneType index="1" speed="13.89"/>
    </type>
    <type id="highway.tertiary_link" priority="5" numLanes="1" speed="22.22" disallow="tram rail_urban rail rail_electric rail_fast ship" oneway="1"/>
    <type id="highway.track" priority="1" numLanes="1" speed="5.56" allow="pedestrian motorcycle moped bicycle" oneway="1"/>
    <type id="highway.trunk" priority="13" numLanes="3" speed="27.78" disallow="pedestrian bicycle tram rail_urban rail rail_electric rail_fast ship" oneway="1">
        <laneType index="0"/>
        <laneType index="1"/>
        <laneType index="2" speed="13.89"/>
    </type>
    <type id="highway.trunk_link" priority="8" numLanes="1" speed="22.22" disallow="pedestrian bicycle tram rail_urban rail rail_electric rail_fast ship" oneway="1"/>
    <type id="highway.unclassified" priority="4" numLanes="1" speed="13.89" disallow="tram rail_urban rail rail_electric rail_fast ship" oneway="1"/>
    <type id="highway.unsurfaced" priority="1" numLanes="1" speed="8.33" disallow="tram rail_urban rail rail_electric rail_fast ship" oneway="1"/>
    <type id="railway.highspeed" priority="21" numLanes="1" speed="69.44" allow="rail_fast" oneway="1"/>
    <type id="railway.light_rail" priority="19" numLanes="1" speed="27.78" allow="rail_urban" oneway="1"/>
    <type id="railway.preserved" priority="16" numLanes="1" speed="27.78" allow="rail" oneway="1"/>
    <type id="railway.rail" priority="20" numLanes="1" speed="44.44" allow="rail" oneway="1"/>
    <type id="railway.subway" priority="18" numLanes="1" speed="27.78" allow="rail_urban" oneway="1"/>
    <type id="railway.tram" priority="17" numLanes="1" speed="13.89" allow="tram" oneway="1"/>

    <edge id=":corrales_recto_0" function="internal">
        <lane id=":corrales_recto_0_0" index="0" disallow="pedestrian bicycle tram rail_urban rail rail_electric rail_fast ship" speed="7.29" length="10.56" shape="970.29,1172.00 969.03,1169.88 967.12,1168.60 964.58,1168.18 961.38,1168.60"/>
    </edge>
    <edge id=":corrales_recto_1" function="internal">
        <lane id=":corrales_recto_1_0" index="0" disallow="tram rail_urban rail rail_electric rail_fast ship" speed="8.33" length="32.29" shape="970.29,1172.00 960.37,1141.13"/>
        <lane id=":corrales_recto_1_1" index="1" disallow="tram rail_urban rail rail_electric rail_fast ship" speed="8.33" length="32.29" shape="973.29,1170.89 963.45,1140.26"/>
    </edge>
    <edge id=":corrales_recto_3" function="internal">
        <lane id=":corrales_recto_3_0" index="0" disallow="pedestrian bicycle tram rail_urban rail rail_electric rail_fast ship" speed="9.66" length="7.39" shape="973.29,1170.89 971.62,1163.90 971.64,1163.69"/>
    </edge>
    <edge id=":corrales_recto_18" function="internal">
        <lane id=":corrales_recto_18_0" index="0" disallow="pedestrian bicycle tram rail_urban rail rail_electric rail_fast ship" speed="9.66" length="16.09" shape="971.64,1163.69 972.33,1158.50 975.44,1154.68 980.94,1152.46"/>
    </edge>
    <edge id=":corrales_recto_4" function="internal">
        <lane id=":corrales_recto_4_0" index="0" disallow="pedestrian bicycle tram rail_urban rail rail_electric rail_fast ship" speed="6.25" length="9.15" shape="982.95,1161.85 980.57,1162.73 979.17,1164.17 978.75,1166.15 979.29,1168.67"/>
    </edge>
    <edge id=":corrales_recto_5" function="internal">
        <lane id=":corrales_recto_5_0" index="0" disallow="pedestrian bicycle tram rail_urban rail rail_electric rail_fast ship" speed="19.45" length="22.70" shape="982.95,1161.85 976.46,1163.53 972.14,1165.12 967.83,1166.76 961.38,1168.60"/>
        <lane id=":corrales_recto_5_1" index="1" disallow="pedestrian bicycle tram rail_urban rail rail_electric rail_fast ship" speed="19.45" length="22.70" shape="982.28,1158.72 975.77,1160.40 971.43,1162.00 967.11,1163.64 960.64,1165.49"/>
        <lane id=":corrales_recto_5_2" index="2" disallow="pedestrian bicycle tram rail_urban rail rail_electric rail_fast ship" speed="19.45" length="22.70" shape="981.61,1155.59 975.08,1157.28 970.72,1158.88 966.38,1160.53 959.89,1162.38"/>
    </edge>
    <edge id=":corrales_recto_8" function="internal">
        <lane id=":corrales_recto_8_0" index="0" disallow="pedestrian bicycle tram rail_urban rail rail_electric rail_fast ship" speed="11.03" length="5.68" shape="981.61,1155.59 975.93,1155.67"/>
    </edge>
    <edge id=":corrales_recto_19" function="internal">
        <lane id=":corrales_recto_19_0" index="0" disallow="pedestrian bicycle tram rail_urban rail rail_electric rail_fast ship" speed="11.03" length="20.85" shape="975.93,1155.67 975.58,1155.68 970.54,1153.15 966.50,1148.01 963.45,1140.26"/>
    </edge>
    <edge id=":corrales_recto_9" function="internal">
        <lane id=":corrales_recto_9_0" index="0" disallow="pedestrian bicycle tram rail_urban rail rail_electric rail_fast ship" speed="8.18" length="14.14" shape="969.57,1138.54 971.19,1142.48 973.40,1145.08 976.20,1146.32 979.60,1146.20"/>
    </edge>
    <edge id=":corrales_recto_10" function="internal">
        <lane id=":corrales_recto_10_0" index="0" disallow="tram rail_urban rail rail_electric rail_fast ship" speed="8.33" length="31.79" shape="969.57,1138.54 979.29,1168.67"/>
        <lane id=":corrales_recto_10_1" index="1" disallow="tram rail_urban rail rail_electric rail_fast ship" speed="8.33" length="31.79" shape="966.49,1139.41 976.29,1169.78"/>
    </edge>
    <edge id=":corrales_recto_12" function="internal">
        <lane id=":corrales_recto_12_0" index="0" disallow="pedestrian bicycle tram rail_urban rail rail_electric rail_fast ship" speed="9.72" length="5.53" shape="966.49,1139.41 967.54,1144.83"/>
    </edge>
    <edge id=":corrales_recto_20" function="internal">
        <lane id=":corrales_recto_20_0" index="0" disallow="pedestrian bicycle tram rail_urban rail rail_electric rail_fast ship" speed="9.72" length="21.48" shape="967.54,1144.83 968.21,1148.35 967.69,1155.15 964.91,1159.83 959.89,1162.38"/>
    </edge>
    <edge id=":corrales_recto_13" function="internal">
        <lane id=":corrales_recto_13_0" index="0" disallow="pedestrian bicycle tram rail_urban rail rail_electric rail_fast ship" speed="6.32" length="8.99" shape="956.37,1147.75 958.70,1146.92 960.15,1145.54 960.70,1143.61 960.37,1141.13"/>
    </edge>
    <edge id=":corrales_recto_14" function="internal">
        <lane id=":corrales_recto_14_0" index="0" disallow="pedestrian bicycle tram rail_urban rail rail_electric rail_fast ship" speed="11.11" length="23.28" shape="956.37,1147.75 963.22,1146.90 968.00,1147.04 972.77,1147.15 979.60,1146.20"/>
        <lane id=":corrales_recto_14_1" index="1" disallow="pedestrian bicycle tram rail_urban rail rail_electric rail_fast ship" speed="11.11" length="23.28" shape="957.12,1150.86 963.94,1150.02 968.71,1150.16 973.47,1150.28 980.27,1149.33"/>
        <lane id=":corrales_recto_14_2" index="2" disallow="pedestrian bicycle tram rail_urban rail rail_electric rail_fast ship" speed="11.11" length="23.28" shape="957.87,1153.98 964.67,1153.13 969.42,1153.28 974.16,1153.40 980.94,1152.46"/>
    </edge>
    <edge id=":corrales_recto_17" function="internal">
        <lane id=":corrales_recto_17_0" index="0" disallow="pedestrian bicycle tram rail_urban rail rail_electric rail_fast ship" speed="9.72" length="11.35" shape="957.87,1153.98 963.42,1154.09 968.34,1156.77 968.47,1156.92"/>
    </edge>
    <edge id=":corrales_recto_21" function="internal">
        <lane id=":corrales_recto_21_0" index="0" disallow="pedestrian bicycle tram rail_urban rail rail_electric rail_fast ship" speed="9.72" length="15.17" shape="968.47,1156.92 972.63,1162.00 976.29,1169.78"/>
    </edge>
    <edge id=":luna_corrales_0" function="internal">
        <lane id=":luna_corrales_0_0" index="0" disallow="tram rail_urban rail rail_electric rail_fast ship" speed="7.59" length="12.40" shape="843.78,855.14 841.52,852.07 839.08,850.32 836.47,849.90 833.68,850.80"/>
    </edge>
    <edge id=":luna_corrales_1" function="internal">
        <lane id=":luna_corrales_1_0" index="0" disallow="tram rail_urban rail rail_electric rail_fast ship" speed="8.33" length="24.24" shape="843.78,855.14 840.45,849.48 837.58,844.82 834.57,840.26 830.80,834.87"/>
        <lane id=":luna_corrales_1_1" index="1" disallow="tram rail_urban rail rail_electric rail_fast ship" speed="8.33" length="24.24" shape="846.56,853.55 843.20,847.84 840.27,843.09 837.20,838.44 833.40,833.01"/>
    </edge>
    <edge id=":luna_corrales_3" function="internal">
        <lane id=":luna_corrales_3_0" index="0" disallow="tram rail_urban rail rail_electric rail_fast ship" speed="5.85" length="9.12" shape="855.15,843.96 852.60,844.72 851.24,846.05 851.05,847.94 852.04,850.41"/>
    </edge>
    <edge id=":luna_corrales_4" function="internal">
        <lane id=":luna_corrales_4_0" index="0" disallow="tram rail_urban rail rail_electric rail_fast ship" speed="8.33" length="23.26" shape="855.15,843.96 848.86,844.98 844.00,846.14 839.35,847.92 833.68,850.80"/>
        <lane id=":luna_corrales_4_1" index="1" disallow="tram rail_urban rail rail_electric rail_fast ship" speed="8.33" length="23.26" shape="854.67,840.80 848.21,841.88 842.99,843.16 837.98,845.06 832.15,847.99"/>
    </edge>
    <edge id=":luna_corrales_6" function="internal">
        <lane id=":luna_corrales_6_0" index="0" disallow="tram rail_urban rail rail_electric rail_fast ship" speed="8.33" length="16.84" shape="838.61,829.29 841.36,832.14 844.79,833.95 848.91,834.73 853.71,834.47"/>
    </edge>
    <edge id=":luna_corrales_7" function="internal">
        <lane id=":luna_corrales_7_0" index="0" disallow="tram rail_urban rail rail_electric rail_fast ship" speed="8.33" length="24.87" shape="838.61,829.29 842.46,834.81 845.63,839.65 848.65,844.59 852.04,850.41"/>
        <lane id=":luna_corrales_7_1" index="1" disallow="tram rail_urban rail rail_electric rail_fast ship" speed="8.33" length="24.87" shape="836.01,831.15 839.83,836.62 842.95,841.38 845.91,846.23 849.26,852.00"/>
    </edge>
    <edge id=":luna_corrales_9" function="internal">
        <lane id=":luna_corrales_9_0" index="0" disallow="tram rail_urban rail rail_electric rail_fast ship" speed="6.26" length="9.04" shape="829.08,842.38 831.09,840.87 832.05,839.11 831.95,837.11 830.80,834.87"/>
    </edge>
    <edge id=":luna_corrales_10" function="internal">
        <lane id=":luna_corrales_10_0" index="0" disallow="tram rail_urban rail rail_electric rail_fast ship" speed="8.33" length="25.48" shape="829.08,842.38 835.24,839.33 840.98,837.18 846.93,835.66 853.71,834.47"/>
        <lane id=":luna_corrales_10_1" index="1" disallow="tram rail_urban rail rail_electric rail_fast ship" speed="8.33" length="25.48" shape="830.61,845.19 836.61,842.19 841.98,840.17 847.57,838.77 854.19,837.63"/>
    </edge>
    <edge id=":luna_osmena_0" function="internal">
        <lane id=":luna_osmena_0_0" index="0" disallow="tram rail_urban rail rail_electric rail_fast ship" speed="6.95" length="9.83" shape="1257.07,796.52 1256.22,794.21 1254.71,792.65 1252.52,791.86 1249.65,791.82"/>
    </edge>
    <edge id=":luna_osmena_1" function="internal">
        <lane id=":luna_osmena_1_0" index="0" disallow="tram rail_urban rail rail_electric rail_fast ship" speed="8.33" length="20.82" shape="1257.07,796.52 1253.30,776.04"/>
        <lane id=":luna_osmena_1_1" index="1" disallow="tram rail_urban rail rail_electric rail_fast ship" speed="8.33" length="20.82" shape="1260.21,795.93 1256.45,775.47"/>
    </edge>
    <edge id=":luna_osmena_3" function="internal">
        <lane id=":luna_osmena_3_0" index="0" disallow="tram rail_urban rail rail_electric rail_fast ship" speed="3.65" length="1.44" shape="1260.21,795.93 1260.78,794.60"/>
    </edge>
    <edge id=":luna_osmena_10" function="internal">
        <lane id=":luna_osmena_10_0" index="0" disallow="tram rail_urban rail rail_electric rail_fast ship" speed="3.65" length="3.23" shape="1260.78,794.60 1261.49,794.06 1262.35,794.31 1263.36,795.34"/>
    </edge>
    <edge id=":luna_osmena_4" function="internal">
        <lane id=":luna_osmena_4_0" index="0" disallow="tram rail_urban rail rail_electric rail_fast ship" speed="8.33" length="20.78" shape="1262.75,774.33 1266.50,794.75"/>
        <lane id=":luna_osmena_4_1" index="1" disallow="tram rail_urban rail rail_electric rail_fast ship" speed="8.33" length="20.78" shape="1259.60,774.90 1263.36,795.34"/>
    </edge>
    <edge id=":luna_osmena_6" function="internal">
        <lane id=":luna_osmena_6_0" index="0" disallow="tram rail_urban rail rail_electric rail_fast ship" speed="8.33" length="4.88" shape="1259.60,774.90 1259.78,779.77"/>
    </edge>
    <edge id=":luna_osmena_7" function="internal">
        <lane id=":luna_osmena_7_0" index="0" disallow="tram rail_urban rail rail_electric rail_fast ship" speed="3.65" length="1.44" shape="1259.60,774.90 1259.03,776.22"/>
    </edge>
    <edge id=":luna_osmena_11" function="internal">
        <lane id=":luna_osmena_11_0" index="0" disallow="tram rail_urban rail rail_electric rail_fast ship" speed="8.33" length="15.03" shape="1259.78,779.77 1259.80,780.41 1258.15,784.53 1254.65,787.28 1249.31,788.64"/>
    </edge>
    <edge id=":luna_osmena_12" function="internal">
        <lane id=":luna_osmena_12_0" index="0" disallow="tram rail_urban rail rail_electric rail_fast ship" speed="3.65" length="3.23" shape="1259.03,776.22 1258.31,776.76 1257.45,776.51 1256.45,775.47"/>
    </edge>
    <edge id=":luna_osmena_8" function="internal">
        <lane id=":luna_osmena_8_0" index="0" disallow="tram rail_urban rail rail_electric rail_fast ship" speed="6.36" length="9.04" shape="1248.63,782.27 1251.06,781.65 1252.64,780.41 1253.39,778.54 1253.30,776.04"/>
    </edge>
    <edge id=":luna_osmena_9" function="internal">
        <lane id=":luna_osmena_9_0" index="0" disallow="tram rail_urban rail rail_electric rail_fast ship" speed="8.33" length="19.57" shape="1248.97,785.45 1254.48,785.58 1258.71,787.27 1261.67,790.52 1263.36,795.34"/>
    </edge>
    <edge id=":luna_roa_0" function="internal">
        <lane id=":luna_roa_0_0" index="0" disallow="tram rail_urban rail rail_electric rail_fast ship" speed="6.86" length="9.79" shape="1078.18,816.77 1077.29,814.06 1075.87,812.24 1073.92,811.32 1071.45,811.28"/>
    </edge>
    <edge id=":luna_roa_1" function="internal">
        <lane id=":luna_roa_1_0" index="0" disallow="tram rail_urban rail rail_electric rail_fast ship" speed="8.33" length="21.94" shape="1078.18,816.77 1076.98,810.62 1076.20,805.89 1075.63,801.14 1075.08,794.89"/>
        <lane id=":luna_roa_1_1" index="1" disallow="tram rail_urban rail rail_electric rail_fast ship" speed="8.33" length="21.94" shape="1081.32,816.15 1080.13,810.05 1079.36,805.45 1078.81,800.82 1078.27,794.63"/>
    </edge>
    <edge id=":luna_roa_3" function="internal">
        <lane id=":luna_roa_3_0" index="0" disallow="tram rail_urban rail rail_electric rail_fast ship" speed="8.33" length="5.12" shape="1081.32,816.15 1081.04,811.03"/>
    </edge>
    <edge id=":luna_roa_16" function="internal">
        <lane id=":luna_roa_16_0" index="0" disallow="tram rail_urban rail rail_electric rail_fast ship" speed="8.33" length="14.94" shape="1081.04,811.03 1081.01,810.58 1082.61,806.42 1086.11,803.65 1091.50,802.27"/>
    </edge>
    <edge id=":luna_roa_4" function="internal">
        <lane id=":luna_roa_4_0" index="0" disallow="tram rail_urban rail rail_electric rail_fast ship" speed="6.32" length="9.04" shape="1092.18,808.63 1089.75,809.25 1088.18,810.50 1087.46,812.38 1087.59,814.89"/>
    </edge>
    <edge id=":luna_roa_5" function="internal">
        <lane id=":luna_roa_5_0" index="0" disallow="tram rail_urban rail rail_electric rail_fast ship" speed="8.33" length="20.97" shape="1092.18,808.63 1071.45,811.28"/>
        <lane id=":luna_roa_5_1" index="1" disallow="tram rail_urban rail rail_electric rail_fast ship" speed="8.33" length="20.97" shape="1091.84,805.45 1070.97,808.12"/>
    </edge>
    <edge id=":luna_roa_7" function="internal">
        <lane id=":luna_roa_7_0" index="0" disallow="tram rail_urban rail rail_electric rail_fast ship" speed="8.33" length="4.51" shape="1091.84,805.45 1087.33,805.31"/>
    </edge>
    <edge id=":luna_roa_17" function="internal">
        <lane id=":luna_roa_17_0" index="0" disallow="tram rail_urban rail rail_electric rail_fast ship" speed="8.33" length="15.40" shape="1087.33,805.31 1086.28,805.28 1082.16,803.42 1079.49,799.87 1078.27,794.63"/>
    </edge>
    <edge id=":luna_roa_8" function="internal">
        <lane id=":luna_roa_8_0" index="0" disallow="tram rail_urban rail rail_electric rail_fast ship" speed="6.57" length="9.40" shape="1084.65,794.11 1085.23,796.53 1086.51,798.17 1088.48,799.02 1091.16,799.09"/>
    </edge>
    <edge id=":luna_roa_9" function="internal">
        <lane id=":luna_roa_9_0" index="0" disallow="tram rail_urban rail rail_electric rail_fast ship" speed="8.33" length="21.19" shape="1084.65,794.11 1085.17,800.18 1085.69,804.56 1086.42,808.91 1087.59,814.89"/>
        <lane id=":luna_roa_9_1" index="1" disallow="tram rail_urban rail rail_electric rail_fast ship" speed="8.33" length="21.19" shape="1081.46,794.37 1081.99,800.50 1082.52,805.00 1083.27,809.48 1084.46,815.52"/>
    </edge>
    <edge id=":luna_roa_11" function="internal">
        <lane id=":luna_roa_11_0" index="0" disallow="tram rail_urban rail rail_electric rail_fast ship" speed="8.33" length="5.04" shape="1081.46,794.37 1081.19,799.40"/>
    </edge>
    <edge id=":luna_roa_18" function="internal">
        <lane id=":luna_roa_18_0" index="0" disallow="tram rail_urban rail rail_electric rail_fast ship" speed="8.33" length="14.39" shape="1081.19,799.40 1081.17,799.74 1079.33,803.82 1075.93,806.61 1070.97,808.12"/>
    </edge>
    <edge id=":luna_roa_12" function="internal">
        <lane id=":luna_roa_12_0" index="0" disallow="tram rail_urban rail rail_electric rail_fast ship" speed="6.86" length="9.62" shape="1070.02,801.79 1072.42,801.05 1074.06,799.65 1074.95,797.60 1075.08,794.89"/>
    </edge>
    <edge id=":luna_roa_13" function="internal">
        <lane id=":luna_roa_13_0" index="0" disallow="tram rail_urban rail rail_electric rail_fast ship" speed="8.33" length="21.25" shape="1070.02,801.79 1091.16,799.09"/>
        <lane id=":luna_roa_13_1" index="1" disallow="tram rail_urban rail rail_electric rail_fast ship" speed="8.33" length="21.25" shape="1070.50,804.96 1091.50,802.27"/>
    </edge>
    <edge id=":luna_roa_15" function="internal">
        <lane id=":luna_roa_15_0" index="0" disallow="tram rail_urban rail rail_electric rail_fast ship" speed="8.33" length="5.18" shape="1070.50,804.96 1075.68,804.97"/>
    </edge>
    <edge id=":luna_roa_19" function="internal">
        <lane id=":luna_roa_19_0" index="0" disallow="tram rail_urban rail rail_electric rail_fast ship" speed="8.33" length="14.56" shape="1075.68,804.97 1079.73,806.73 1082.66,810.24 1084.46,815.52"/>
    </edge>
    <edge id=":osmena_florentino_0" function="internal">
        <lane id=":osmena_florentino_0_0" index="0" disallow="tram rail_urban rail rail_electric rail_fast ship" speed="8.33" length="20.86" shape="1268.12,855.28 1264.22,834.78"/>
        <lane id=":osmena_florentino_0_1" index="1" disallow="tram rail_urban rail rail_electric rail_fast ship" speed="8.33" length="20.86" shape="1271.26,854.67 1267.37,834.19"/>
    </edge>
    <edge id=":osmena_florentino_2" function="internal">
        <lane id=":osmena_florentino_2_0" index="0" disallow="tram rail_urban rail rail_electric rail_fast ship" speed="9.30" length="4.99" shape="1271.26,854.67 1271.04,849.69"/>
    </edge>
    <edge id=":osmena_florentino_8" function="internal">
        <lane id=":osmena_florentino_8_0" index="0" disallow="tram rail_urban rail rail_electric rail_fast ship" speed="9.30" length="14.55" shape="1271.04,849.69 1271.03,849.39 1272.58,845.29 1275.92,842.36 1281.05,840.60"/>
    </edge>
    <edge id=":osmena_florentino_3" function="internal">
        <lane id=":osmena_florentino_3_0" index="0" disallow="tram rail_urban rail rail_electric rail_fast ship" speed="6.51" length="9.04" shape="1282.04,846.93 1279.68,847.74 1278.15,849.10 1277.43,851.01 1277.55,853.46"/>
    </edge>
    <edge id=":osmena_florentino_4" function="internal">
        <lane id=":osmena_florentino_4_0" index="0" disallow="tram rail_urban rail rail_electric rail_fast ship" speed="9.28" length="19.54" shape="1281.55,843.77 1276.18,844.04 1272.02,842.53 1269.09,839.25 1267.37,834.19"/>
    </edge>
    <edge id=":osmena_florentino_5" function="internal">
        <lane id=":osmena_florentino_5_0" index="0" disallow="tram rail_urban rail rail_electric rail_fast ship" speed="6.59" length="9.35" shape="1273.66,833.01 1274.48,835.37 1275.90,836.90 1277.92,837.59 1280.55,837.44"/>
    </edge>
    <edge id=":osmena_florentino_6" function="internal">
        <lane id=":osmena_florentino_6_0" index="0" disallow="tram rail_urban rail rail_electric rail_fast ship" speed="8.33" length="20.83" shape="1273.66,833.01 1277.55,853.46"/>
        <lane id=":osmena_florentino_6_1" index="1" disallow="tram rail_urban rail rail_electric rail_fast ship" speed="8.33" length="20.83" shape="1270.51,833.60 1274.41,854.07"/>
    </edge>
    <edge id=":recto_osmena_0" function="internal">
        <lane id=":recto_osmena_0_0" index="0" disallow="pedestrian bicycle tram rail_urban rail rail_electric rail_fast ship" speed="7.03" length="10.49" shape="1316.27,1098.43 1315.22,1095.66 1313.59,1093.86 1311.40,1093.04 1308.65,1093.18"/>
    </edge>
    <edge id=":recto_osmena_1" function="internal">
        <lane id=":recto_osmena_1_0" index="0" disallow="tram rail_urban rail rail_electric rail_fast ship" speed="8.33" length="28.46" shape="1316.27,1098.43 1309.75,1070.66"/>
        <lane id=":recto_osmena_1_1" index="1" disallow="tram rail_urban rail rail_electric rail_fast ship" speed="8.33" length="28.46" shape="1319.38,1097.70 1312.89,1070.06"/>
    </edge>
    <edge id=":recto_osmena_3" function="internal">
        <lane id=":recto_osmena_3_0" index="0" disallow="pedestrian bicycle tram rail_urban rail rail_electric rail_fast ship" speed="9.72" length="3.27" shape="1319.38,1097.70 1318.98,1094.45"/>
    </edge>
    <edge id=":recto_osmena_18" function="internal">
        <lane id=":recto_osmena_18_0" index="0" disallow="pedestrian bicycle tram rail_urban rail rail_electric rail_fast ship" speed="9.72" length="19.62" shape="1318.98,1094.45 1318.50,1090.64 1319.57,1085.22 1322.59,1081.45 1327.58,1079.33"/>
    </edge>
    <edge id=":recto_osmena_4" function="internal">
        <lane id=":recto_osmena_4_0" index="0" disallow="pedestrian bicycle tram rail_urban rail rail_electric rail_fast ship" speed="6.43" length="9.02" shape="1329.82,1089.59 1327.49,1090.43 1326.01,1091.81 1325.39,1093.74 1325.61,1096.22"/>
    </edge>
    <edge id=":recto_osmena_5" function="internal">
        <lane id=":recto_osmena_5_0" index="0" disallow="pedestrian bicycle tram rail_urban rail rail_electric rail_fast ship" speed="19.45" length="21.42" shape="1329.82,1089.59 1308.65,1093.18"/>
        <lane id=":recto_osmena_5_1" index="1" disallow="pedestrian bicycle tram rail_urban rail rail_electric rail_fast ship" speed="19.45" length="21.42" shape="1329.14,1086.47 1308.00,1090.05"/>
        <lane id=":recto_osmena_5_2" index="2" disallow="pedestrian bicycle tram rail_urban rail rail_electric rail_fast ship" speed="19.45" length="21.42" shape="1328.39,1083.35 1307.35,1086.92"/>
    </edge>
    <edge id=":recto_osmena_8" function="internal">
        <lane id=":recto_osmena_8_0" index="0" disallow="pedestrian bicycle tram rail_urban rail rail_electric rail_fast ship" speed="9.72" length="4.27" shape="1328.39,1083.35 1324.12,1083.45"/>
    </edge>
    <edge id=":recto_osmena_19" function="internal">
        <lane id=":recto_osmena_19_0" index="0" disallow="pedestrian bicycle tram rail_urban rail rail_electric rail_fast ship" speed="9.72" length="18.98" shape="1324.12,1083.45 1322.76,1083.48 1318.29,1081.30 1315.01,1076.83 1312.89,1070.06"/>
    </edge>
    <edge id=":recto_osmena_9" function="internal">
        <lane id=":recto_osmena_9_0" index="0" disallow="pedestrian bicycle tram rail_urban rail rail_electric rail_fast ship" speed="6.58" length="9.42" shape="1319.17,1068.84 1320.01,1071.18 1321.47,1072.67 1323.53,1073.30 1326.21,1073.07"/>
    </edge>
    <edge id=":recto_osmena_10" function="internal">
        <lane id=":recto_osmena_10_0" index="0" disallow="tram rail_urban rail rail_electric rail_fast ship" speed="8.33" length="28.19" shape="1319.17,1068.84 1325.61,1096.22"/>
        <lane id=":recto_osmena_10_1" index="1" disallow="tram rail_urban rail rail_electric rail_fast ship" speed="8.33" length="28.19" shape="1316.03,1069.45 1322.50,1096.96"/>
    </edge>
    <edge id=":recto_osmena_12" function="internal">
        <lane id=":recto_osmena_12_0" index="0" disallow="pedestrian bicycle tram rail_urban rail rail_electric rail_fast ship" speed="9.91" length="3.19" shape="1316.03,1069.45 1316.29,1072.63"/>
    </edge>
    <edge id=":recto_osmena_20" function="internal">
        <lane id=":recto_osmena_20_0" index="0" disallow="pedestrian bicycle tram rail_urban rail rail_electric rail_fast ship" speed="9.91" length="18.88" shape="1316.29,1072.63 1316.58,1076.19 1315.31,1081.34 1312.24,1084.92 1307.35,1086.92"/>
    </edge>
    <edge id=":recto_osmena_13" function="internal">