<?xml version="1.0" encoding="UTF-8"?>

<!-- generated on 2022-09-03 19:53:40 by Eclipse SUMO netedit Version 1.10.0
<configuration xmlns:xsi="http://www.w3.org/2001/XMLSchema-instance" xsi:noNamespaceSchemaLocation="http://sumo.dlr.de/xsd/netconvertConfiguration.xsd">

    <input>
        <sumo-net-file value="D:\Main%20GDrive\Programming\Gthub%20Repo\DQL_AveEntLumRei\2022-09-03-15-17-00\osm.net.xml"/>
    </input>

    <output>
        <output-file value="D:\Main%20GDrive\Programming\Gthub%20Repo\DQL_AveEntLumRei\2022-09-03-15-17-00\osm.net.xml"/>
        <output.street-names value="true"/>
    </output>

    <processing>
        <geometry.min-radius.fix.railways value="false"/>
        <geometry.max-grade.fix value="false"/>
        <offset.disable-normalization value="true"/>
        <lefthand value="false"/>
    </processing>

    <junctions>
        <no-turnarounds value="true"/>
        <junctions.corner-detail value="5"/>
        <junctions.limit-turn-speed value="5.5"/>
        <rectangular-lane-cut value="false"/>
    </junctions>

    <pedestrian>
        <walkingareas value="false"/>
    </pedestrian>

    <netedit>
        <additional-files value="D:\Main%20GDrive\Programming\Gthub%20Repo\DQL_AveEntLumRei\2022-09-03-15-17-00\osm.poly.xml"/>
    </netedit>

    <report>
        <aggregate-warnings value="5"/>
    </report>

</configuration>
-->

<additional xmlns:xsi="http://www.w3.org/2001/XMLSchema-instance" xsi:noNamespaceSchemaLocation="http://sumo.dlr.de/xsd/additional_file.xsd">
    <poly id="1005494367" type="building.yes" color="255,230,230" fill="1" layer="-1.00" shape="1062.424155,720.051810 1042.518986,727.100899 1042.105130,726.026315 1033.318416,728.565946 1031.340184,722.496633 1060.624219,713.485551 1062.424155,720.051810"/>
    <poly id="1005494368" type="building.yes" color="255,230,230" fill="1" layer="-1.00" shape="1062.556176,733.025801 1060.404782,726.247907 1028.759656,736.366013 1031.043749,743.011749 1062.556176,733.025801"/>
    <poly id="1005494372" type="building.yes" color="255,230,230" fill="1" layer="-1.00" shape="1096.611398,824.194797 1113.076271,818.270289 1111.138570,810.442594 1108.328420,810.983643 1107.288070,809.640952 1093.751119,810.634076 1096.611398,824.194797"/>
    <poly id="1042827133" type="building.yes" color="255,230,230" fill="1" layer="-1.00" shape="1333.171829,894.835795 1333.012296,888.342862 1337.241023,888.239213 1337.400509,894.743206 1333.171829,894.835795"/>
    <poly id="1042828212" type="building.yes" color="255,230,230" fill="1" layer="-1.00" shape="1328.780152,894.418927 1328.152834,889.173788 1331.722270,888.746589 1332.360599,893.991775 1328.780152,894.418927"/>
    <poly id="1042828213" type="building.yes" color="255,230,230" fill="1" layer="-1.00" shape="1327.152910,888.682887 1325.683212,882.151193 1330.664972,881.044286 1332.123658,887.575933 1327.152910,888.682887"/>
    <poly id="1042828214" type="building.yes" color="255,230,230" fill="1" layer="-1.00" shape="1337.705656,867.050122 1344.399476,867.277715 1344.210898,872.773761 1345.807300,872.824801 1345.630721,878.088636 1337.340502,877.810003 1337.705656,867.050122"/>
    <poly id="1042828215" type="building.yes" color="255,230,230" fill="1" layer="-1.00" shape="1352.229278,882.585008 1356.304182,882.403285 1356.082577,877.558036 1352.007672,877.739758 1352.229278,882.585008"/>
    <poly id="1042828216" type="building.yes" color="255,230,230" fill="1" layer="-1.00" shape="1371.463674,885.664223 1371.504779,881.185074 1377.736891,881.233745 1377.706844,885.701881 1371.463674,885.664223"/>
    <poly id="1052887758" type="building.yes" color="255,230,230" fill="1" layer="-1.00" shape="1277.140564,1059.259268 1290.774020,1056.275818 1289.769412,1051.714796 1276.124944,1054.698200 1277.140564,1059.259268"/>
    <poly id="1052887759" type="building.yes" color="255,230,230" fill="1" layer="-1.00" shape="1272.281621,1065.144644 1276.988132,1064.025503 1274.921599,1055.434099 1270.215086,1056.553241 1272.281621,1065.144644"/>
    <poly id="1052887760" type="building.roof" color="255,230,230" fill="1" layer="-1.00" shape="1281.264417,1063.092551 1283.591301,1072.603049 1293.511532,1070.201028 1291.173639,1060.690483 1281.264417,1063.092551"/>
    <poly id="1052887761" type="building.yes" color="255,230,230" fill="1" layer="-1.00" shape="1193.077035,974.999790 1212.914558,970.892474 1211.266237,959.759045 1191.063749,964.240852 1193.077035,974.999790"/>
    <poly id="1052887762" type="building.yes" color="255,230,230" fill="1" layer="-1.00" shape="1182.704613,993.094124 1187.926617,992.452747 1186.637839,982.216715 1181.426845,982.858139 1182.704613,993.094124"/>
    <poly id="1052887763" type="amenity.health_post" color="237,199,199" fill="1" layer="-1.00" shape="1157.895389,998.540679 1157.318826,994.302226 1165.769243,993.154765 1166.345805,997.393217 1157.895389,998.540679"/>
    <poly id="1052887763#1" type="building.public" color="255,230,230" fill="1" layer="-1.00" shape="1157.895389,998.540679 1157.318826,994.302226 1165.769243,993.154765 1166.345805,997.393217 1157.895389,998.540679"/>
    <poly id="1053699364" type="building.yes" color="255,230,230" fill="1" layer="-1.00" shape="1218.949225,903.507149 1231.270486,900.971547 1230.512162,892.872361 1228.064352,888.482160 1226.169197,888.772714 1215.459109,890.474612 1218.949225,903.507149"/>
    <poly id="1053699365" type="building.yes" color="255,230,230" fill="1" layer="-1.00" shape="1248.725876,895.161911 1263.644081,893.024477 1261.782799,880.186889 1242.732937,882.903979 1243.716847,889.743280 1247.859556,889.152614 1248.725876,895.161911"/>
    <poly id="1053699366" type="building.yes" color="255,230,230" fill="1" layer="-1.00" shape="1225.777840,887.587622 1223.811739,881.263963 1234.594722,877.958670 1236.560821,884.282330 1225.777840,887.587622"/>
    <poly id="1053699367" type="building.yes" color="255,230,230" fill="1" layer="-1.00" shape="1188.666968,919.404267 1195.935082,921.813112 1197.741781,916.434558 1190.462655,914.025665 1188.666968,919.404267"/>
    <poly id="1053699368" type="building.yes" color="255,230,230" fill="1" layer="-1.00" shape="1209.553855,911.939155 1209.573439,907.338257 1215.867706,905.717102 1215.173435,913.611023 1210.053809,916.066682 1209.553855,911.939155"/>
    <poly id="1053699369" type="building.yes" color="255,230,230" fill="1" layer="-1.00" shape="1170.381760,977.900467 1177.954978,975.886590 1176.600029,970.848501 1169.026764,972.873438 1170.381760,977.900467"/>
    <poly id="1053699370" type="building.yes" color="255,230,230" fill="1" layer="-1.00" shape="1172.185810,944.683757 1177.269525,942.902605 1175.867008,933.517713 1169.689869,933.491425 1172.185810,944.683757"/>
    <poly id="1053699371" type="building.yes" color="255,230,230" fill="1" layer="-1.00" shape="1229.582812,1002.539883 1228.127429,990.057948 1239.650701,988.735562 1241.095070,1001.217452 1229.582812,1002.539883"/>
    <poly id="1053699372" type="building.yes" color="255,230,230" fill="1" layer="-1.00" shape="1228.309544,986.077104 1233.263662,986.286217 1233.470389,981.697175 1228.505259,981.488016 1228.309544,986.077104"/>
    <poly id="1053699373" type="building.yes" color="255,230,230" fill="1" layer="-1.00" shape="1239.838138,983.504955 1238.315136,971.387713 1263.632160,968.232793 1265.038320,979.343075 1254.219602,980.701635 1252.474647,981.921871 1239.838138,983.504955"/>
    <poly id="1053699374" type="building.yes" color="255,230,230" fill="1" layer="-1.00" shape="1225.654720,973.413102 1224.224133,960.278730 1240.979727,958.480915 1242.123986,969.037078 1237.827696,969.494368 1236.825128,972.210873 1225.654720,973.413102"/>
    <poly id="1053699375" type="building.yes" color="255,230,230" fill="1" layer="-1.00" shape="1269.301294,978.952006 1267.604292,966.325257 1277.683821,965.306414 1280.735893,972.596927 1275.601830,973.271847 1276.242187,978.041458 1269.301294,978.952006"/>
    <poly id="1053699376" type="building.yes" color="255,230,230" fill="1" layer="-1.00" shape="1281.860563,972.236735 1283.578787,972.122392 1283.713687,974.058476 1286.335091,973.881618 1285.463631,961.324744 1279.046597,963.332467 1281.860563,972.236735"/>
    <poly id="1053699377" type="building.yes" color="255,230,230" fill="1" layer="-1.00" shape="1273.353851,999.529905 1292.715505,995.984662 1291.036565,986.875086 1271.663943,990.409223 1273.353851,999.529905"/>
    <poly id="1053699378" type="building.yes" color="255,230,230" fill="1" layer="-1.00" shape="1279.825174,987.358222 1278.542473,980.871568 1290.135774,978.620448 1289.390719,985.507690 1279.825174,987.358222"/>
    <poly id="1053699379" type="building.yes" color="255,230,230" fill="1" layer="-1.00" shape="1240.483489,956.067711 1239.001805,942.004076 1247.362925,941.143809 1247.743968,944.751009 1243.888349,945.154875 1242.435791,947.526602 1243.354283,956.798837 1240.483489,956.067711"/>
    <poly id="1053699380" type="building.yes" color="255,230,230" fill="1" layer="-1.00" shape="1233.397961,897.839549 1243.416712,895.581710 1241.578939,887.566408 1231.571150,889.835355 1233.397961,897.839549"/>
    <poly id="1053699381" type="building.yes" color="255,230,230" fill="1" layer="-1.00" shape="1193.484321,987.963903 1192.774138,976.314647 1200.406785,975.860494 1200.571567,978.537728 1203.137821,978.382751 1203.539517,984.898831 1201.139035,987.498785 1193.484321,987.963903"/>
    <poly id="1053699382" type="building.yes" color="255,230,230" fill="1" layer="-1.00" shape="1187.556121,926.865073 1182.272092,926.555022 1182.105418,929.496286 1192.431329,930.093237 1192.965516,921.004149 1187.923633,920.717249 1187.556121,926.865073"/>
    <poly id="1053767288" type="building.yes" color="255,230,230" fill="1" layer="-1.00" shape="1180.788162,954.408972 1178.874624,946.083670 1185.046822,944.683193 1188.063186,957.780071 1177.570419,960.168623 1176.467638,955.385988 1180.788162,954.408972"/>
    <poly id="1053767289" type="building.yes" color="255,230,230" fill="1" layer="-1.00" shape="1173.341043,924.205462 1174.438667,914.676370 1177.080070,914.975173 1175.971435,924.504218 1173.341043,924.205462"/>
    <poly id="1053767290" type="building.yes" color="255,230,230" fill="1" layer="-1.00" shape="1178.565795,915.158457 1181.000351,909.727274 1188.902442,913.233761 1186.467885,918.664944 1178.565795,915.158457"/>
    <poly id="1053767672" type="building.yes" color="255,230,230" fill="1" layer="-1.00" shape="1169.530120,968.440500 1167.291289,958.930390 1175.623935,956.997164 1176.878468,962.344507 1172.480728,963.354375 1173.464977,967.528203 1169.530120,968.440500"/>
    <poly id="1053767673" type="building.yes" color="255,230,230" fill="1" layer="-1.00" shape="1174.247883,967.266094 1173.569116,963.757169 1177.624481,962.989165 1177.161273,960.576103 1181.481137,959.753925 1182.623065,965.686972 1174.247883,967.266094"/>
    <poly id="1053768670" type="building.yes" color="255,230,230" fill="1" layer="-1.00" shape="1182.703948,905.288384 1184.965578,899.093322 1190.737572,901.175057 1188.475941,907.370119 1182.703948,905.288384"/>
    <poly id="1053768671" type="building.yes" color="255,230,230" fill="1" layer="-1.00" shape="1166.887855,898.485505 1167.863364,894.364258 1162.121295,893.012617 1161.145740,897.144924 1166.887855,898.485505"/>
    <poly id="1053768672" type="building.yes" color="255,230,230" fill="1" layer="-1.00" shape="1167.885381,899.540455 1170.243429,888.800122 1176.756077,890.199284 1174.409038,900.939663 1167.885381,899.540455"/>
    <poly id="1053768673" type="building.yes" color="255,230,230" fill="1" layer="-1.00" shape="1178.727869,902.948852 1180.498147,895.778414 1176.918037,893.540108 1174.844910,902.014343 1178.727869,902.948852"/>
    <poly id="1053768674" type="building.yes" color="255,230,230" fill="1" layer="-1.00" shape="1189.919835,907.033403 1192.021997,899.499396 1199.368886,901.510415 1197.266676,909.055482 1189.919835,907.033403"/>
    <poly id="1053770893" type="building.yes" color="255,230,230" fill="1" layer="-1.00" shape="1017.839688,901.379637 1016.624702,894.495125 1031.588805,891.915405 1032.792825,898.788811 1017.839688,901.379637"/>
    <poly id="1053770894" type="building.yes" color="255,230,230" fill="1" layer="-1.00" shape="1036.172568,896.358914 1034.850062,888.865642 1040.117245,887.958997 1041.428786,895.441163 1036.172568,896.358914"/>
    <poly id="1053770895" type="building.yes" color="255,230,230" fill="1" layer="-1.00" shape="1038.989462,907.176554 1036.947572,897.954856 1041.675735,896.924259 1043.717625,906.145958 1038.989462,907.176554"/>
    <poly id="1053770896" type="building.yes" color="255,230,230" fill="1" layer="-1.00" shape="1029.237395,908.871510 1028.244276,901.600840 1036.672633,900.464316 1037.665703,907.746047 1029.237395,908.871510"/>
    <poly id="1053770897" type="building.yes" color="255,230,230" fill="1" layer="-1.00" shape="1140.665935,904.689212 1140.689936,896.460638 1149.190436,896.485748 1149.155376,904.725335 1140.665935,904.689212"/>
    <poly id="1053770898" type="building.yes" color="255,230,230" fill="1" layer="-1.00" shape="1149.895368,904.197601 1151.153443,898.363249 1157.072063,899.627160 1155.813987,905.461512 1149.895368,904.197601"/>
    <poly id="1053770899" type="building.yes" color="255,230,230" fill="1" layer="-1.00" shape="1155.338958,913.588626 1156.240306,908.781340 1160.839353,909.630415 1159.926993,914.437653 1155.338958,913.588626"/>
    <poly id="1053770900" type="building.yes" color="255,230,230" fill="1" layer="-1.00" shape="1140.389855,920.404365 1140.047625,912.848896 1146.402258,912.566254 1146.733430,920.132736 1140.389855,920.404365"/>
    <poly id="1053770901" type="building.yes" color="255,230,230" fill="1" layer="-1.00" shape="1147.407452,916.994550 1147.494366,912.095319 1155.278728,912.216924 1155.100004,923.165611 1153.302396,923.821564 1153.419098,917.097552 1147.407452,916.994550"/>
    <poly id="1053770902" type="building.yes" color="255,230,230" fill="1" layer="-1.00" shape="1140.412247,935.844286 1140.383077,927.173085 1148.101935,927.161690 1148.131104,935.832891 1140.412247,935.844286"/>
    <poly id="1053770903" type="building.yes" color="255,230,230" fill="1" layer="-1.00" shape="1150.226240,937.710955 1149.352333,930.894247 1153.715113,930.337689 1154.588972,937.165458 1150.226240,937.710955"/>
    <poly id="1053770904" type="building.yes" color="255,230,230" fill="1" layer="-1.00" shape="1156.633109,927.739935 1156.767361,924.654753 1161.787504,924.875197 1161.653252,927.960379 1156.633109,927.739935"/>
    <poly id="1053770905" type="building.yes" color="255,230,230" fill="1" layer="-1.00" shape="1155.049880,934.944349 1154.967725,930.962382 1157.037970,930.926952 1157.002634,928.880692 1161.176204,928.798913 1161.293696,934.827139 1155.049880,934.944349"/>
    <poly id="1053770906" type="building.yes" color="255,230,230" fill="1" layer="-1.00" shape="1154.032580,948.886741 1154.069710,945.336624 1158.683199,945.378377 1158.646069,948.928494 1154.032580,948.886741"/>
    <poly id="1053770907" type="building.yes" color="255,230,230" fill="1" layer="-1.00" shape="1154.299144,953.522036 1154.181980,950.004442 1158.520995,949.857006 1158.638112,953.385660 1154.299144,953.522036"/>
    <poly id="1053770908" type="building.yes" color="255,230,230" fill="1" layer="-1.00" shape="1154.527498,959.373773 1154.230820,954.052627 1161.731149,953.642144 1162.038885,958.952277 1154.527498,959.373773"/>
    <poly id="1053770909" type="building.yes" color="255,230,230" fill="1" layer="-1.00" shape="1159.467825,965.411464 1159.508344,961.065037 1166.753398,961.129050 1166.712878,965.475477 1159.467825,965.411464"/>
    <poly id="1053770910" type="building.yes" color="255,230,230" fill="1" layer="-1.00" shape="1157.554932,967.283532 1156.258189,961.504668 1152.742313,962.286029 1154.050114,968.053880 1157.554932,967.283532"/>
    <poly id="1053770911" type="building.yes" color="255,230,230" fill="1" layer="-1.00" shape="1157.134731,965.113974 1156.893623,962.259455 1159.030544,962.080528 1159.271652,964.935047 1157.134731,965.113974"/>
    <poly id="1053770912" type="building.yes" color="255,230,230" fill="1" layer="-1.00" shape="1148.449565,948.973584 1150.785860,948.519003 1148.425105,936.608346 1146.088809,937.062926 1148.449565,948.973584"/>
    <poly id="1053770913" type="building.yes" color="255,230,230" fill="1" layer="-1.00" shape="1156.212297,923.126104 1156.544465,917.520073 1155.795909,917.472647 1155.950629,914.752534 1161.597642,917.740657 1161.265191,923.413048 1156.212297,923.126104"/>
    <poly id="1053770914" type="building.yes" color="255,230,230" fill="1" layer="-1.00" shape="1083.128633,879.758412 1083.158223,872.801770 1088.166843,873.143815 1088.139416,879.591705 1083.128633,879.758412"/>
    <poly id="1053770915" type="building.yes" color="255,230,230" fill="1" layer="-1.00" shape="1157.004956,907.634349 1158.935688,901.570599 1165.588512,903.667138 1163.657779,909.730889 1157.004956,907.634349"/>
    <poly id="1053770916" type="building.yes" color="255,230,230" fill="1" layer="-1.00" shape="1076.474350,880.592792 1076.487851,877.418617 1074.031891,877.529831 1073.819853,873.016431 1082.167332,872.775435 1082.135860,880.174471 1076.474350,880.592792"/>
    <poly id="1053771004" type="building.yes" color="255,230,230" fill="1" layer="-1.00" shape="1154.147391,890.855156 1156.053089,885.499142 1162.825812,887.883752 1160.920160,893.228707 1154.147391,890.855156"/>
    <poly id="1053771408" type="building.yes" color="255,230,230" fill="1" layer="-1.00" shape="1186.706039,1046.387418 1183.065877,1032.392020 1189.944363,1030.618511 1193.584523,1044.613910 1186.706039,1046.387418"/>
    <poly id="1053771409" type="building.yes" color="255,230,230" fill="1" layer="-1.00" shape="1212.665377,1163.911442 1202.937270,1128.953438 1222.769413,1123.507851 1232.497507,1158.465862 1212.665377,1163.911442"/>
    <poly id="1053771410" type="building.yes" color="255,230,230" fill="1" layer="-1.00" shape="1202.184145,1148.084122 1198.533503,1136.555066 1202.888644,1135.202161 1206.539285,1146.731218 1202.184145,1148.084122"/>
    <poly id="1053771411" type="building.yes" color="255,230,230" fill="1" layer="-1.00" shape="1184.965745,1131.874203 1184.043197,1126.141170 1192.670706,1124.773271 1193.604311,1130.495292 1184.965745,1131.874203"/>
    <poly id="1053771412" type="building.yes" color="255,230,230" fill="1" layer="-1.00" shape="1185.272759,1139.938287 1183.964407,1134.303152 1192.043394,1132.457336 1193.351746,1138.092472 1185.272759,1139.938287"/>
    <poly id="1053771413" type="building.yes" color="255,230,230" fill="1" layer="-1.00" shape="1192.168486,1159.975277 1190.323333,1153.696372 1206.672914,1148.965917 1208.518065,1155.244823 1192.168486,1159.975277"/>
    <poly id="1053771414" type="building.yes" color="255,230,230" fill="1" layer="-1.00" shape="1305.734753,1129.446518 1301.484095,1116.609805 1311.893085,1113.203407 1316.154799,1126.029109 1305.734753,1129.446518"/>
    <poly id="1053771415" type="building.yes" color="255,230,230" fill="1" layer="-1.00" shape="1259.658100,1141.250422 1250.956735,1113.419449 1259.192851,1110.877530 1267.894165,1138.719566 1259.658100,1141.250422"/>
    <poly id="1053772259" type="building.yes" color="255,230,230" fill="1" layer="-1.00" shape="1076.628584,870.219127 1076.529193,862.520913 1081.044014,862.462696 1081.094320,866.168025 1085.521053,866.109433 1085.570137,870.102318 1076.628584,870.219127"/>
    <poly id="1053772260" type="building.yes" color="255,230,230" fill="1" layer="-1.00" shape="1138.144233,925.427131 1138.109177,923.314513 1141.754129,923.252602 1141.709522,920.797081 1145.993108,920.737888 1146.078604,926.522657 1141.883106,926.582225 1141.866214,925.376608 1138.144233,925.427131"/>
    <poly id="1053772261" type="building.yes" color="255,230,230" fill="1" layer="-1.00" shape="1152.919682,941.305872 1152.094852,938.482050 1154.211588,937.871695 1155.036418,940.695517 1152.919682,941.305872"/>
    <poly id="1053773049" type="building.yes" color="255,230,230" fill="1" layer="-1.00" shape="1151.187570,949.858979 1150.876820,945.256676 1153.355034,945.090261 1153.665784,949.692564 1151.187570,949.858979"/>
    <poly id="1053773641" type="building.yes" color="255,230,230" fill="1" layer="-1.00" shape="1197.170761,1014.368877 1195.195738,1002.382434 1200.341465,1001.552715 1201.608174,1009.211662 1206.610665,1008.403453 1207.319071,1012.708829 1197.170761,1014.368877"/>
    <poly id="1053773642" type="building.yes" color="255,230,230" fill="1" layer="-1.00" shape="1168.993714,985.813555 1168.876688,984.850833 1170.676177,983.752486 1171.019308,980.745613 1176.450521,980.105126 1177.138745,983.979073 1168.993714,985.813555"/>
    <poly id="1053773643" type="building.yes" color="255,230,230" fill="1" layer="-1.00" shape="1165.328856,907.758252 1166.285682,905.439713 1169.935104,906.915170 1171.069987,904.154988 1175.576805,905.976955 1173.485001,911.077796 1165.328856,907.758252"/>
    <poly id="1053773644" type="building.yes" color="255,230,230" fill="1" layer="-1.00" shape="1176.105120,924.139805 1178.141354,916.572337 1186.995328,918.921570 1184.959092,926.489038 1181.824456,925.657253 1176.105120,924.139805"/>
    <poly id="1053773645" type="building.yes" color="255,230,230" fill="1" layer="-1.00" shape="1204.982173,922.769605 1205.180521,917.561165 1210.189796,917.748388 1210.002458,922.956875 1204.982173,922.769605"/>
    <poly id="1053773646" type="building.yes" color="255,230,230" fill="1" layer="-1.00" shape="1213.096706,930.689962 1212.949902,926.375917 1217.674493,926.185888 1217.832212,930.522100 1213.096706,930.689962"/>
    <poly id="1053773647" type="building.yes" color="255,230,230" fill="1" layer="-1.00" shape="1213.162688,925.536259 1213.158039,921.455080 1217.419416,921.440040 1217.424066,925.521219 1213.162688,925.536259"/>
    <poly id="1053773648" type="building.yes" color="255,230,230" fill="1" layer="-1.00" shape="1207.587666,926.330972 1207.534970,923.189693 1211.157901,923.127694 1211.132166,921.413277 1212.695861,921.386753 1212.785303,926.242496 1207.587666,926.330972"/>
    <poly id="1053773649" type="building.yes" color="255,230,230" fill="1" layer="-1.00" shape="1202.393269,904.962964 1201.153898,893.466296 1211.063620,890.953604 1213.147819,903.161712 1202.393269,904.962964"/>
    <poly id="1053773650" type="building.yes" color="255,230,230" fill="1" layer="-1.00" shape="1245.792130,906.629756 1244.356161,899.932310 1261.295584,896.343553 1262.731552,903.041000 1245.792130,906.629756"/>
    <poly id="1053773651" type="building.yes" color="255,230,230" fill="1" layer="-1.00" shape="1240.542793,882.651334 1239.419271,874.981934 1254.856504,872.492783 1256.246593,879.621376 1240.542793,882.651334"/>
    <poly id="1053774563" type="building.yes" color="255,230,230" fill="1" layer="-1.00" shape="1275.183737,1172.273642 1272.746693,1165.361787 1285.803182,1160.816416 1280.178435,1144.854917 1286.011959,1142.822594 1294.084757,1165.695998 1289.640726,1167.236535 1275.183737,1172.273642"/>
    <poly id="1053774564" type="building.yes" color="255,230,230" fill="1" layer="-1.00" shape="1280.775344,1180.504020 1279.153378,1176.117330 1288.086281,1172.848423 1289.719305,1177.224101 1280.775344,1180.504020"/>
    <poly id="1053774565" type="building.yes" color="255,230,230" fill="1" layer="-1.00" shape="1272.105058,1173.819997 1267.803618,1162.564660 1260.701066,1165.244123 1264.991497,1176.499412 1272.105058,1173.819997"/>
    <poly id="1053774566" type="building.yes" color="255,230,230" fill="1" layer="-1.00" shape="1276.833398,1190.839442 1274.941718,1185.146516 1282.373606,1182.700719 1284.265284,1188.393646 1276.833398,1190.839442"/>
    <poly id="1053774567" type="building.yes" color="255,230,230" fill="1" layer="-1.00" shape="1272.147312,1174.240459 1277.048427,1173.962713 1277.580480,1183.476627 1272.679412,1183.743313 1272.147312,1174.240459"/>
    <poly id="1053774568" type="building.yes" color="255,230,230" fill="1" layer="-1.00" shape="1265.063497,1195.788456 1262.284692,1188.974686 1270.226282,1185.778975 1273.005085,1192.592745 1265.063497,1195.788456"/>
    <poly id="1053774569" type="building.yes" color="255,230,230" fill="1" layer="-1.00" shape="1252.001430,1165.450394 1249.409429,1158.725902 1261.243518,1154.219558 1263.835518,1160.944051 1252.001430,1165.450394"/>
    <poly id="1053774570" type="building.yes" color="255,230,230" fill="1" layer="-1.00" shape="1239.738707,1185.284149 1237.665254,1178.318545 1247.289906,1175.506038 1249.352347,1182.471596 1239.738707,1185.284149"/>
    <poly id="1053774571" type="building.yes" color="255,230,230" fill="1" layer="-1.00" shape="1236.376135,1201.782490 1236.169634,1195.975082 1245.937978,1195.618520 1246.155489,1201.425975 1236.376135,1201.782490"/>
    <poly id="1053774572" type="building.yes" color="255,230,230" fill="1" layer="-1.00" shape="1231.163624,1187.271622 1230.987893,1181.995228 1237.650559,1181.769219 1237.826289,1187.045613 1231.163624,1187.271622"/>
    <poly id="1053774573" type="building.yes" color="255,230,230" fill="1" layer="-1.00" shape="1251.360614,1181.473684 1250.769109,1175.576156 1256.067699,1175.045719 1256.670167,1180.954354 1251.360614,1181.473684"/>
    <poly id="1053774574" type="building.yes" color="255,230,230" fill="1" layer="-1.00" shape="1247.744790,1174.700591 1247.452427,1165.784943 1256.614944,1165.481102 1256.907306,1174.396751 1247.744790,1174.700591"/>
    <poly id="1053774575" type="building.yes" color="255,230,230" fill="1" layer="-1.00" shape="1228.976952,1181.035500 1228.504530,1178.202114 1235.876132,1176.983719 1236.348506,1179.828165 1228.976952,1181.035500"/>
    <poly id="1053774576" type="building.yes" color="255,230,230" fill="1" layer="-1.00" shape="1237.638555,1194.930632 1235.719019,1188.020984 1243.634251,1185.842681 1245.564749,1192.763436 1237.638555,1194.930632"/>
    <poly id="1053774577" type="building.yes" color="255,230,230" fill="1" layer="-1.00" shape="1279.770262,1196.735902 1279.089404,1191.136613 1285.159602,1190.410386 1285.829497,1195.998568 1279.770262,1196.735902"/>
    <poly id="1053774578" type="building.yes" color="255,230,230" fill="1" layer="-1.00" shape="1271.889805,1198.505124 1271.133883,1195.017987 1274.263576,1191.834961 1277.578699,1191.650001 1278.826389,1196.012978 1276.676394,1196.678483 1276.869219,1197.940151 1271.889805,1198.505124"/>
    <poly id="1053774579" type="building.yes" color="255,230,230" fill="1" layer="-1.00" shape="1281.353353,1202.493874 1281.417735,1200.304257 1286.019717,1200.456581 1285.944324,1202.646151 1281.353353,1202.493874"/>
    <poly id="1053774580" type="building.yes" color="255,230,230" fill="1" layer="-1.00" shape="1280.612806,1210.907423 1280.243066,1207.233909 1283.856235,1206.873258 1284.214964,1210.546725 1280.612806,1210.907423"/>
    <poly id="1053774581" type="building.yes" color="255,230,230" fill="1" layer="-1.00" shape="1293.745676,1245.293783 1292.656128,1234.826328 1307.582690,1233.286210 1308.672187,1243.764726 1293.745676,1245.293783"/>
    <poly id="1053774582" type="building.yes" color="255,230,230" fill="1" layer="-1.00" shape="1300.363656,1198.692775 1299.309541,1187.661408 1305.412115,1187.090162 1306.466227,1198.121530 1300.363656,1198.692775"/>
    <poly id="1053774583" type="building.yes" color="255,230,230" fill="1" layer="-1.00" shape="1301.701634,1212.877469 1300.784274,1208.515898 1309.656040,1206.673484 1310.573400,1211.035055 1301.701634,1212.877469"/>
    <poly id="1053774584" type="building.yes" color="255,230,230" fill="1" layer="-1.00" shape="1307.651141,1227.557391 1307.125759,1221.649082 1311.961417,1221.227281 1312.486799,1227.135591 1307.651141,1227.557391"/>
    <poly id="1053774586" type="building.yes" color="255,230,230" fill="1" layer="-1.00" shape="1282.682028,1260.221969 1287.286312,1259.832361 1287.044841,1257.066318 1288.410706,1256.950476 1287.702378,1250.045983 1281.843043,1250.386005 1282.682028,1260.221969"/>
    <poly id="1053774588" type="building.yes" color="255,230,230" fill="1" layer="-1.00" shape="1304.538580,1221.549580 1303.019170,1213.767886 1313.889653,1210.584661 1314.292911,1219.312765 1304.538580,1221.549580"/>
    <poly id="1053774589" type="building.yes" color="255,230,230" fill="1" layer="-1.00" shape="1267.901438,1214.569457 1279.738000,1212.065002 1280.422425,1219.411795 1269.090481,1222.360801 1267.901438,1214.569457"/>
    <poly id="1053774590" type="building.yes" color="255,230,230" fill="1" layer="-1.00" shape="1204.826953,1176.497588 1202.858658,1170.693740 1205.812730,1169.965294 1202.967527,1160.640616 1209.849244,1158.103984 1213.542494,1175.141130 1204.826953,1176.497588"/>
    <poly id="1053774591" type="building.yes" color="255,230,230" fill="1" layer="-1.00" shape="1206.843761,1196.768191 1201.558346,1183.860726 1213.184015,1179.165463 1218.469475,1192.061870 1206.843761,1196.768191"/>
    <poly id="1053774592" type="building.yes" color="255,230,230" fill="1" layer="-1.00" shape="1197.859718,1170.672457 1204.551376,1168.809678 1201.687635,1158.666478 1194.995977,1160.529257 1197.859718,1170.672457"/>
    <poly id="1053776077" type="building.yes" color="255,230,230" fill="1" layer="-1.00" shape="1334.989612,1132.413584 1332.582794,1123.577403 1338.160813,1122.074880 1340.578640,1130.911109 1334.989612,1132.413584"/>
    <poly id="1053776078" type="building.yes" color="255,230,230" fill="1" layer="-1.00" shape="1347.429334,1140.827991 1343.931734,1132.153062 1350.726936,1129.251099 1352.331306,1132.598073 1354.634059,1137.430071 1347.429334,1140.827991"/>
    <poly id="1053776079" type="building.yes" color="255,230,230" fill="1" layer="-1.00" shape="1344.026607,1130.560818 1337.222388,1114.903964 1342.980682,1112.439984 1349.773888,1128.096792 1344.026607,1130.560818"/>