<?xml version="1.0" encoding="UTF-8"?>

<!-- generated on 2022-09-03 15:17:08 by Eclipse SUMO duarouter Version 1.10.0
<configuration xmlns:xsi="http://www.w3.org/2001/XMLSchema-instance" xsi:noNamespaceSchemaLocation="http://sumo.dlr.de/xsd/duarouterConfiguration.xsd">

    <input>
        <net-file value="D:\Main%20GDrive\Programming\Gthub%20Repo\DQL_AveEntLumRei\2022-09-03-15-17-00\osm.net.xml"/>
        <route-files value="D:\Main%20GDrive\Programming\Gthub%20Repo\DQL_AveEntLumRei\2022-09-03-15-17-00\osm.passenger.trips.xml"/>
    </input>

    <output>
        <output-file value="D:\Main%20GDrive\Programming\Gthub%20Repo\DQL_AveEntLumRei\2022-09-03-15-17-00\osm.passenger.trips.xml.tmp"/>
        <write-trips value="true"/>
    </output>

    <time>
        <begin value="0"/>
        <end value="3600"/>
    </time>

    <report>
        <no-warnings value="true"/>
        <ignore-errors value="true"/>
        <no-step-log value="true"/>
    </report>

</configuration>
-->

<routes xmlns:xsi="http://www.w3.org/2001/XMLSchema-instance" xsi:noNamespaceSchemaLocation="http://sumo.dlr.de/xsd/routes_file.xsd">
    <vType id="veh_passenger" vClass="passenger"/>
    <trip id="veh0" type="veh_passenger" depart="0.00" departLane="best" departSpeed="max" from="243254026#0" to="-1052634123"/>
    <trip id="veh1" type="veh_passenger" depart="6.56" departLane="best" from="-69549987#2" to="-494667421#0"/>
    <trip id="veh2" type="veh_passenger" depart="13.12" departLane="best" departSpeed="max" from="353967234#0" to="490613988#1"/>
    <trip id="veh3" type="veh_passenger" depart="19.68" departLane="best" departSpeed="max" from="785902528" to="-182107019#0"/>
    <trip id="veh4" type="veh_passenger" depart="26.24" departLane="best" from="1052887757#1" to="-114444371#2"/>
    <trip id="veh5" type="veh_passenger" depart="32.80" departLane="best" departSpeed="max" from="-494343252#13" to="183669338#2"/>
    <trip id="veh6" type="veh_passenger" depart="39.36" departLane="best" departSpeed="max" from="-178432453" to="-494343252#11"/>
    <trip id="veh7" type="veh_passenger" depart="45.92" departLane="best" departSpeed="max" from="-494343252#13" to="243254143"/>
    <trip id="veh8" type="veh_passenger" depart="52.48" departLane="best" from="494343252#1" to="-1007467126"/>
    <trip id="veh9" type="veh_passenger" depart="59.03" departLane="best" from="88191079" to="-88191155"/>
    <trip id="veh10" type="veh_passenger" depart="65.59" departLane="best" departSpeed="max" from="-183669338#2" to="-182107019#4"/>
    <trip id="veh12" type="veh_passenger" depart="78.71" departLane="best" from="494343252#0" to="494343252#11"/>
    <trip id="veh13" type="veh_passenger" depart="85.27" departLane="best" departSpeed="max" from="-942123887" to="190256572#5"/>
    <trip id="veh14" type="veh_passenger" depart="91.83" departLane="best" from="690847317#1" to="243254030#1"/>
    <trip id="veh15" type="veh_passenger" depart="98.39" departLane="best" departSpeed="max" from="326344763" to="-141597399#0"/>
    <trip id="veh16" type="veh_passenger" depart="104.95" departLane="best" from="-494343252#2" to="-819728492"/>
    <trip id="veh17" type="veh_passenger" depart="111.51" departLane="best" from="-182107019#4" to="-619284830"/>
    <trip id="veh18" type="veh_passenger" depart="118.07" departLane="best" departSpeed="max" from="-183669338#2" to="-785902540#1"/>
    <trip id="veh19" type="veh_passenger" depart="124.63" departLane="best" departSpeed="max" from="243254026#0" to="1052887757#1"/>
    <trip id="veh20" type="veh_passenger" depart="131.19" departLane="best" from="-88191146" to="-494343252#4"/>
    <trip id="veh21" type="veh_passenger" depart="137.75" departLane="best" from="-579458307" to="88191025#1"/>
    <trip id="veh22" type="veh_passenger" depart="144.31" departLane="best" departSpeed="max" from="243254026#0" to="289519580"/>
    <trip id="veh23" type="veh_passenger" depart="150.87" departLane="best" from="-31954377#0" to="494343252#11"/>
    <trip id="veh24" type="veh_passenger" depart="157.43" departLane="best" from="-30270057#1" to="114444371#1"/>
    <trip id="veh25" type="veh_passenger" depart="163.98" departLane="best" departSpeed="max" from="91198487" to="353967234#2"/>
    <trip id="veh27" type="veh_passenger" depart="177.10" departLane="best" from="-494343252#2" to="-114444371#4"/>
    <trip id="veh28" type="veh_passenger" depart="183.66" departLane="best" departSpeed="max" from="-819689551" to="-785902528"/>
    <trip id="veh29" type="veh_passenger" depart="190.22" departLane="best" from="-494343252#11" to="88191042"/>
    <trip id="veh30" type="veh_passenger" depart="196.78" departLane="best" from="732022517#0" to="-88191087#0"/>
    <trip id="veh31" type="veh_passenger" depart="203.34" departLane="best" from="243254030#3" to="136178317"/>
    <trip id="veh32" type="veh_passenger" depart="209.90" departLane="best" departSpeed="max" from="819728492" to="182107015#3"/>
    <trip id="veh33" type="veh_passenger" depart="216.46" departLane="best" from="-501095917" to="-725238124"/>
    <trip id="veh34" type="veh_passenger" depart="223.02" departLane="best" from="182624929" to="-785902528"/>
    <trip id="veh35" type="veh_passenger" depart="229.58" departLane="best" from="190256571#4" to="819689551"/>
    <trip id="veh36" type="veh_passenger" depart="236.14" departLane="best" departSpeed="max" from="1052634123" to="-494343252#8"/>
    <trip id="veh37" type="veh_passenger" depart="242.70" departLane="best" from="949925124" to="183669338#2"/>
    <trip id="veh38" type="veh_passenger" depart="249.26" departLane="best" departSpeed="max" from="-183669338#2" to="-141597399#0"/>
    <trip id="veh39" type="veh_passenger" depart="255.82" departLane="best" from="-190256571#0" to="31954377#1"/>
    <trip id="veh40" type="veh_passenger" depart="262.38" departLane="best" from="494343241#3" to="181547908"/>
    <trip id="veh41" type="veh_passenger" depart="268.94" departLane="best" from="-182107018#3" to="114444371#3"/>
    <trip id="veh42" type="veh_passenger" depart="275.49" departLane="best" from="88191089#1" to="732022517#1"/>
    <trip id="veh43" type="veh_passenger" depart="282.05" departLane="best" departSpeed="max" from="-136178311" to="494343252#0"/>
    <trip id="veh44" type="veh_passenger" depart="288.61" departLane="best" from="263159366#3" to="190256571#5"/>
    <trip id="veh45" type="veh_passenger" depart="295.17" departLane="best" from="-579458307" to="353967234#2"/>
    <trip id="veh46" type="veh_passenger" depart="301.73" departLane="best" from="-190256571#1" to="182107014#0"/>
    <trip id="veh47" type="veh_passenger" depart="308.29" departLane="best" from="114444363#1" to="88191070#1"/>
    <trip id="veh48" type="veh_passenger" depart="314.85" departLane="best" from="725238125" to="-785902528"/>
    <trip id="veh49" type="veh_passenger" depart="321.41" departLane="best" from="182107014#0" to="-326348400"/>
    <trip id="veh50" type="veh_passenger" depart="327.97" departLane="best" departSpeed="max" from="819667451" to="785902540#0"/>
    <trip id="veh51" type="veh_passenger" depart="334.53" departLane="best" from="-732022517#2" to="353967234#2"/>
    <trip id="veh52" type="veh_passenger" depart="341.09" departLane="best" from="353967234#5" to="190256571#5"/>
    <trip id="veh53" type="veh_passenger" depart="347.65" departLane="best" from="490613988#1" to="190256571#2"/>
    <trip id="veh54" type="veh_passenger" depart="354.21" departLane="best" from="-136178319#1" to="87219578#1"/>
    <trip id="veh55" type="veh_passenger" depart="360.77" departLane="best" from="732022517#1" to="69549987#1"/>
    <trip id="veh56" type="veh_passenger" depart="367.33" departLane="best" from="-785902540#2" to="-182107014#2"/>
    <trip id="veh57" type="veh_passenger" depart="373.89" departLane="best" from="732022517#0" to="88191067"/>
    <trip id="veh58" type="veh_passenger" depart="380.44" departLane="best" from="-183669338#0" to="182107019#3"/>
    <trip id="veh59" type="veh_passenger" depart="387.00" departLane="best" from="-182107018#8" to="494343252#8"/>
    <trip id="veh60" type="veh_passenger" depart="393.56" departLane="best" from="370526996" to="-190256571#5"/>
    <trip id="veh61" type="veh_passenger" depart="400.12" departLane="best" departSpeed="max" from="141597399#0" to="190256572#3"/>
    <trip id="veh62" type="veh_passenger" depart="406.68" departLane="best" from="-501095917" to="785902540#1"/>
    <trip id="veh63" type="veh_passenger" depart="413.24" departLane="best" from="114444358" to="-494343252#4"/>
    <trip id="veh64" type="veh_passenger" depart="419.80" departLane="best" from="182107018#7" to="494343252#11"/>
    <trip id="veh65" type="veh_passenger" depart="426.36" departLane="best" departSpeed="max" from="-494338607#1" to="-88191070#1"/>
    <trip id="veh66" type="veh_passenger" depart="432.92" departLane="best" from="91198573" to="353967234#4"/>
    <trip id="veh67" type="veh_passenger" depart="439.48" departLane="best" departSpeed="max" from="114444363#0" to="186593866#0"/>
    <trip id="veh68" type="veh_passenger" depart="446.04" departLane="best" from="-190256571#4" to="-494667421#1"/>
    <trip id="veh69" type="veh_passenger" depart="452.60" departLane="best" from="-87219577#1" to="243254143"/>
    <trip id="veh70" type="veh_passenger" depart="459.16" departLane="best" from="-182107019#0" to="31954377#4"/>
    <trip id="veh71" type="veh_passenger" depart="465.72" departLane="best" from="-494343252#2" to="819696886"/>
    <trip id="veh72" type="veh_passenger" depart="472.28" departLane="best" from="690847317#0" to="-182107014#7"/>
    <trip id="veh73" type="veh_passenger" depart="478.84" departLane="best" from="-494343252#7" to="464366516#1"/>
    <trip id="veh74" type="veh_passenger" depart="485.40" departLane="best" from="-494343252#12" to="-190256572#1"/>
    <trip id="veh75" type="veh_passenger" depart="491.95" departLane="best" departSpeed="max" from="87219578#0" to="243254025#2"/>
    <trip id="veh76" type="veh_passenger" depart="498.51" departLane="best" from="136178319#2" to="494667412#1"/>
    <trip id="veh77" type="veh_passenger" depart="505.07" departLane="best" from="494343252#0" to="-494338607#0"/>
    <trip id="veh78" type="veh_passenger" depart="511.63" departLane="best" departSpeed="max" from="-183669338#2" to="181547908"/>
    <trip id="veh79" type="veh_passenger" depart="518.19" departLane="best" from="114444358" to="182107018#0"/>
    <trip id="veh80" type="veh_passenger" depart="524.75" departLane="best" departSpeed="max" from="1052634123" to="-88191155"/>
    <trip id="veh81" type="veh_passenger" depart="531.31" departLane="best" from="690847317#1" to="-725238125"/>
    <trip id="veh82" type="veh_passenger" depart="537.87" departLane="best" from="1052887757#1" to="-785902540#1"/>
    <trip id="veh83" type="veh_passenger" depart="544.43" departLane="best" from="-494667421#3" to="848673666"/>
    <trip id="veh84" type="veh_passenger" depart="550.99" departLane="best" from="182107019#3" to="-178419461"/>
    <trip id="veh85" type="veh_passenger" depart="557.55" departLane="best" from="949925125" to="69549987#4"/>
    <trip id="veh86" type="veh_passenger" depart="564.11" departLane="best" from="88191087#4" to="87219577#0"/>
    <trip id="veh87" type="veh_passenger" depart="570.67" departLane="best" from="494667421#0" to="-30270057#2"/>
    <trip id="veh88" type="veh_passenger" depart="577.23" departLane="best" departSpeed="max" from="178321574" to="-494343252#5"/>
    <trip id="veh89" type="veh_passenger" depart="583.79" departLane="best" departSpeed="max" from="1052634123" to="-182107014#2"/>
    <trip id="veh90" type="veh_passenger" depart="590.35" departLane="best" departSpeed="max" from="-942123887" to="88336595#1"/>
    <trip id="veh91" type="veh_passenger" depart="596.91" departLane="best" from="-501095917" to="494667412#1"/>
    <trip id="veh92" type="veh_passenger" depart="603.46" departLane="best" from="114444363#1" to="181547908"/>
    <trip id="veh93" type="veh_passenger" depart="610.02" departLane="best" from="88191079" to="942123887"/>
    <trip id="veh94" type="veh_passenger" depart="616.58" departLane="best" from="182107019#5" to="494343251#5"/>
    <trip id="veh95" type="veh_passenger" depart="623.14" departLane="best" departSpeed="max" from="-289519580" to="-848673666"/>
    <trip id="veh96" type="veh_passenger" depart="629.70" departLane="best" from="88191087#4" to="243254030#2"/>
    <trip id="veh97" type="veh_passenger" depart="636.26" departLane="best" from="182107019#0" to="494343252#2"/>
    <trip id="veh98" type="veh_passenger" depart="642.82" departLane="best" from="-182107014#8" to="243254030#4"/>
    <trip id="veh99" type="veh_passenger" depart="649.38" departLane="best" from="182107014#1" to="725238124"/>
    <trip id="veh100" type="veh_passenger" depart="655.94" departLane="best" departSpeed="max" from="-289519580" to="88191087#4"/>
    <trip id="veh101" type="veh_passenger" depart="662.50" departLane="best" from="-182107019#4" to="-490613988#0"/>
    <trip id="veh102" type="veh_passenger" depart="669.06" departLane="best" from="-494343252#4" to="-190256571#2"/>
    <trip id="veh103" type="veh_passenger" depart="675.62" departLane="best" departSpeed="max" from="785902528" to="-725238124"/>
    <trip id="veh104" type="veh_passenger" depart="682.18" departLane="best" from="190256572#2" to="30270057#1"/>
    <trip id="veh105" type="veh_passenger" depart="688.74" departLane="best" from="-494343252#7" to="136178317"/>
    <trip id="veh106" type="veh_passenger" depart="695.30" departLane="best" departSpeed="max" from="25879944#0" to="-87219577#1"/>
    <trip id="veh107" type="veh_passenger" depart="701.86" departLane="best" departSpeed="max" from="-819689551" to="494343252#4"/>
    <trip id="veh108" type="veh_passenger" depart="708.41" departLane="best" from="-182107019#1" to="-494343252#5"/>
    <trip id="veh109" type="veh_passenger" depart="714.97" departLane="best" from="-501095917" to="88191025#1"/>
    <trip id="veh110" type="veh_passenger" depart="721.53" departLane="best" from="190256584#9" to="88336595#3"/>
    <trip id="veh111" type="veh_passenger" depart="728.09" departLane="best" from="243254030#3" to="-1007467126"/>
    <trip id="veh112" type="veh_passenger" depart="734.65" departLane="best" from="494343252#12" to="-87219577#1"/>
    <trip id="veh113" type="veh_passenger" depart="741.21" departLane="best" departSpeed="max" from="25879944#0" to="88191038#0"/>
    <trip id="veh114" type="veh_passenger" depart="747.77" departLane="best" from="-186593866#3" to="190256584#0"/>
    <trip id="veh115" type="veh_passenger" depart="754.33" departLane="best" from="-69549987#0" to="263159366#3"/>
    <trip id="veh116" type="veh_passenger" depart="760.89" departLane="best" departSpeed="max" from="243254026#0" to="-785902528"/>
    <trip id="veh117" type="veh_passenger" depart="767.45" departLane="best" from="178414934#1" to="819696886"/>
    <trip id="veh119" type="veh_passenger" depart="780.57" departLane="best" from="-114444371#2" to="494343260"/>
    <trip id="veh120" type="veh_passenger" depart="787.13" departLane="best" departSpeed="max" from="243254026#0" to="-785902528"/>
    <trip id="veh121" type="veh_passenger" depart="793.69" departLane="best" from="353967234#1" to="190256572#5"/>
    <trip id="veh122" type="veh_passenger" depart="800.25" departLane="best" from="-182107019#2" to="785902554"/>
    <trip id="veh123" type="veh_passenger" depart="806.81" departLane="best" from="785902540#2" to="190256572#2"/>
    <trip id="veh124" type="veh_passenger" depart="813.37" departLane="best" from="494343252#9" to="243254030#3"/>
    <trip id="veh125" type="veh_passenger" depart="819.92" departLane="best" from="-190256584#9" to="-190256571#5"/>
    <trip id="veh126" type="veh_passenger" depart="826.48" departLane="best" from="-785902540#2" to="819689551"/>
    <trip id="veh127" type="veh_passenger" depart="833.04" departLane="best" from="494343249" to="732022517#1"/>
    <trip id="veh128" type="veh_passenger" depart="839.60" departLane="best" from="785902540#0" to="-494343252#4"/>
    <trip id="veh129" type="veh_passenger" depart="846.16" departLane="best" from="494338607#0" to="785902554"/>
    <trip id="veh130" type="veh_passenger" depart="852.72" departLane="best" departSpeed="max" from="1052634123" to="30270057#2"/>
    <trip id="veh131" type="veh_passenger" depart="859.28" departLane="best" from="69549987#2" to="88191123#1"/>
    <trip id="veh132" type="veh_passenger" depart="865.84" departLane="best" from="494343252#1" to="785902554"/>
    <trip id="veh133" type="veh_passenger" depart="872.40" departLane="best" departSpeed="max" from="-178432453" to="494343252#13"/>
    <trip id="veh134" type="veh_passenger" depart="878.96" departLane="best" departSpeed="max" from="-819696887" to="88191025#1"/>
    <trip id="veh135" type="veh_passenger" depart="885.52" departLane="best" from="494343251#4" to="732022517#2"/>
    <trip id="veh136" type="veh_passenger" depart="892.08" departLane="best" from="494343252#1" to="-785902528"/>
    <trip id="veh137" type="veh_passenger" depart="898.64" departLane="best" from="494343241#2" to="-186593866#1"/>
    <trip id="veh138" type="veh_passenger" depart="905.20" departLane="best" from="725238124" to="732022517#0"/>
    <trip id="veh139" type="veh_passenger" depart="911.76" departLane="best" departSpeed="max" from="-494343252#13" to="494667421#0"/>
    <trip id="veh140" type="veh_passenger" depart="918.32" departLane="best" from="114444371#1" to="-88191070#0"/>
    <trip id="veh141" type="veh_passenger" depart="924.87" departLane="best" from="494343249" to="-494667421#3"/>
    <trip id="veh142" type="veh_passenger" depart="931.43" departLane="best" departSpeed="max" from="-819696887" to="732022517#2"/>
    <trip id="veh143" type="veh_passenger" depart="937.99" departLane="best" departSpeed="max" from="243254026#0" to="136178319#2"/>
    <trip id="veh144" type="veh_passenger" depart="944.55" departLane="best" departSpeed="max" from="88191155" to="190256571#4"/>
    <trip id="veh145" type="veh_passenger" depart="951.11" departLane="best" from="87219578#1" to="-190256571#0"/>
    <trip id="veh146" type="veh_passenger" depart="957.67" departLane="best" from="88191089#0" to="-326348400"/>
    <trip id="veh147" type="veh_passenger" depart="964.23" departLane="best" departSpeed="max" from="88191087#0" to="-785902528"/>
    <trip id="veh148" type="veh_passenger" depart="970.79" departLane="best" departSpeed="max" from="353967234#0" to="-88191079"/>
    <trip id="veh149" type="veh_passenger" depart="977.35" departLane="best" from="190256584#3" to="183669338#2"/>
    <trip id="veh150" type="veh_passenger" depart="983.91" departLane="best" departSpeed="max" from="1007467126" to="243254030#1"/>
    <trip id="veh151" type="veh_passenger" depart="990.47" departLane="best" departSpeed="max" from="-500301677" to="494343249"/>
    <trip id="veh152" type="veh_passenger" depart="997.03" departLane="best" from="182107018#6" to="494343251#5"/>
    <trip id="veh153" type="veh_passenger" depart="1003.59" departLane="best" from="353967234#1" to="464366516#1"/>
    <trip id="veh154" type="veh_passenger" depart="1010.15" departLane="best" departSpeed="max" from="25879944#0" to="-88191116"/>
    <trip id="veh155" type="veh_passenger" depart="1016.71" departLane="best" departSpeed="max" from="-819670247" to="695513005#1"/>
    <trip id="veh156" type="veh_passenger" depart="1023.27" departLane="best" departSpeed="max" from="353967234#0" to="-88191026"/>
    <trip id="veh157" type="veh_passenger" depart="1029.83" departLane="best" departSpeed="max" from="1052634123" to="-831553405"/>
    <trip id="veh158" type="veh_passenger" depart="1036.38" departLane="best" from="-190256572#1" to="181547908"/>
    <trip id="veh159" type="veh_passenger" depart="1042.94" departLane="best" from="88191026" to="490613988#1"/>
    <trip id="veh160" type="veh_passenger" depart="1049.50" departLane="best" from="785902540#1" to="30270057#0"/>
    <trip id="veh161" type="veh_passenger" depart="1056.06" departLane="best" from="-785902529" to="190256572#3"/>
    <trip id="veh162" type="veh_passenger" depart="1062.62" departLane="best" from="-114444371#0" to="-819667451"/>
    <trip id="veh163" type="veh_passenger" depart="1069.18" departLane="best" departSpeed="max" from="114444363#0" to="243254030#2"/>
    <trip id="veh164" type="veh_passenger" depart="1075.74" departLane="best" from="243254030#3" to="182107017"/>
    <trip id="veh165" type="veh_passenger" depart="1082.30" departLane="best" departSpeed="max" from="114444363#0" to="-494343252#5"/>
    <trip id="veh166" type="veh_passenger" depart="1088.86" departLane="best" from="136178319#2" to="819689551"/>
    <trip id="veh167" type="veh_passenger" depart="1095.42" departLane="best" from="494343249" to="-30270057#3"/>
    <trip id="veh168" type="veh_passenger" depart="1101.98" departLane="best" from="-182107019#5" to="183669338#2"/>
    <trip id="veh169" type="veh_passenger" depart="1108.54" departLane="best" departSpeed="max" from="243254026#0" to="-88191155"/>
    <trip id="veh170" type="veh_passenger" depart="1115.10" departLane="best" from="494343252#12" to="494343252#3"/>
    <trip id="veh171" type="veh_passenger" depart="1121.66" departLane="best" departSpeed="max" from="25879944#0" to="-494667421#1"/>
    <trip id="veh172" type="veh_passenger" depart="1128.22" departLane="best" departSpeed="max" from="-494338607#1" to="-1052634123"/>
    <trip id="veh173" type="veh_passenger" depart="1134.78" departLane="best" from="-494343252#9" to="182107018#7"/>
    <trip id="veh174" type="veh_passenger" depart="1141.33" departLane="best" from="1052642613#0" to="31954377#3"/>
    <trip id="veh175" type="veh_passenger" depart="1147.89" departLane="best" from="-490613988#1" to="494343241#0"/>
    <trip id="veh176" type="veh_passenger" depart="1154.45" departLane="best" departSpeed="max" from="180365883#0" to="-695513005#0"/>
    <trip id="veh177" type="veh_passenger" depart="1161.01" departLane="best" from="243254030#4" to="-1007467126"/>
    <trip id="veh178" type="veh_passenger" depart="1167.57" departLane="best" from="353967234#3" to="494343260"/>
    <trip id="veh179" type="veh_passenger" depart="1174.13" departLane="best" from="-186593866#3" to="181547908"/>
    <trip id="veh180" type="veh_passenger" depart="1180.69" departLane="best" from="-31954377#3" to="88191087#2"/>
    <trip id="veh181" type="veh_passenger" depart="1187.25" departLane="best" from="182107014#8" to="-178419461"/>
    <trip id="veh182" type="veh_passenger" depart="1193.81" departLane="best" from="-494667421#2" to="695513005#1"/>
    <trip id="veh183" type="veh_passenger" depart="1200.37" departLane="best" from="114444363#1" to="494667420#3"/>
    <trip id="veh184" type="veh_passenger" depart="1206.93" departLane="best" departSpeed="max" from="25879944#0" to="88336595#3"/>
    <trip id="veh185" type="veh_passenger" depart="1213.49" departLane="best" from="190256572#2" to="88191067"/>
    <trip id="veh186" type="veh_passenger" depart="1220.05" departLane="best" departSpeed="max" from="785902528" to="289519580"/>
    <trip id="veh187" type="veh_passenger" depart="1226.61" departLane="best" departSpeed="max" from="353967234#0" to="183669338#2"/>
    <trip id="veh188" type="veh_passenger" depart="1233.17" departLane="best" from="494343252#6" to="190256572#3"/>
    <trip id="veh189" type="veh_passenger" depart="1239.73" departLane="best" departSpeed="max" from="141597399#0" to="-785902528"/>
    <trip id="veh190" type="veh_passenger" depart="1246.29" departLane="best" from="-494667421#1" to="353967234#2"/>
    <trip id="veh191" type="veh_passenger" depart="1252.84" departLane="best" from="353967234#5" to="186593866#3"/>
    <trip id="veh192" type="veh_passenger" depart="1259.40" departLane="best" from="243254025#3" to="-785902540#0"/>
    <trip id="veh193" type="veh_passenger" depart="1265.96" departLane="best" from="-182107019#3" to="-819667451"/>
    <trip id="veh194" type="veh_passenger" depart="1272.52" departLane="best" from="-690847317#1" to="-88191087#0"/>
    <trip id="veh195" type="veh_passenger" depart="1279.08" departLane="best" from="182107018#7" to="-190256572#3"/>
    <trip id="veh196" type="veh_passenger" depart="1285.64" departLane="best" departSpeed="max" from="326344763" to="-182107014#5"/>
    <trip id="veh197" type="veh_passenger" depart="1292.20" departLane="best" departSpeed="max" from="1052634123" to="190256572#1"/>
    <trip id="veh198" type="veh_passenger" depart="1298.76" departLane="best" from="1052642613#1" to="-494343252#3"/>
    <trip id="veh199" type="veh_passenger" depart="1305.32" departLane="best" from="1052642613#1" to="819696886"/>
    <trip id="veh200" type="veh_passenger" depart="1311.88" departLane="best" from="190256571#4" to="494343241#0"/>
    <trip id="veh201" type="veh_passenger" depart="1318.44" departLane="best" from="579458307" to="494343256"/>
    <trip id="veh202" type="veh_passenger" depart="1325.00" departLane="best" departSpeed="max" from="-942123887" to="-1007467126"/>
    <trip id="veh203" type="veh_passenger" depart="1331.56" departLane="best" from="-88191073" to="494343252#4"/>
    <trip id="veh204" type="veh_passenger" depart="1338.12" departLane="best" from="1052642613#1" to="494343252#2"/>
    <trip id="veh205" type="veh_passenger" depart="1344.68" departLane="best" from="182107019#1" to="263159366#3"/>
    <trip id="veh206" type="veh_passenger" depart="1351.24" departLane="best" departSpeed="max" from="-494343252#13" to="-494343252#8"/>
    <trip id="veh207" type="veh_passenger" depart="1357.79" departLane="best" departSpeed="max" from="114444363#0" to="-114444371#2"/>
    <trip id="veh208" type="veh_passenger" depart="1364.35" departLane="best" from="-848673666" to="494338607#0"/>
    <trip id="veh209" type="veh_passenger" depart="1370.91" departLane="best" departSpeed="max" from="1052634123" to="-30270057#1"/>
    <trip id="veh210" type="veh_passenger" depart="1377.47" departLane="best" departSpeed="max" from="136178319#0" to="-190256571#5"/>
    <trip id="veh211" type="veh_passenger" depart="1384.03" departLane="best" from="243254025#1" to="-114444371#0"/>
    <trip id="veh212" type="veh_passenger" depart="1390.59" departLane="best" departSpeed="max" from="1007467126" to="190256584#9"/>
    <trip id="veh213" type="veh_passenger" depart="1397.15" departLane="best" departSpeed="max" from="-178432453" to="353967234#3"/>
    <trip id="veh214" type="veh_passenger" depart="1403.71" departLane="best" from="-190256572#5" to="182107017"/>
    <trip id="veh215" type="veh_passenger" depart="1410.27" departLane="best" from="-182107014#5" to="114444371#1"/>
    <trip id="veh216" type="veh_passenger" depart="1416.83" departLane="best" from="-494343252#11" to="-88191089#0"/>
    <trip id="veh217" type="veh_passenger" depart="1423.39" departLane="best" from="353967234#5" to="114444371#1"/>
    <trip id="veh218" type="veh_passenger" depart="1429.95" departLane="best" from="353967234#3" to="69549987#1"/>
    <trip id="veh219" type="veh_passenger" depart="1436.51" departLane="best" departSpeed="max" from="-500301677" to="-182107018#6"/>
    <trip id="veh220" type="veh_passenger" depart="1443.07" departLane="best" from="-136178319#1" to="190256571#5"/>
    <trip id="veh221" type="veh_passenger" depart="1449.63" departLane="best" from="949925125" to="-91198487"/>
    <trip id="veh222" type="veh_passenger" depart="1456.19" departLane="best" from="243254030#1" to="494667412#0"/>
    <trip id="veh223" type="veh_passenger" depart="1462.75" departLane="best" from="243254030#2" to="494343252#5"/>
    <trip id="veh224" type="veh_passenger" depart="1469.30" departLane="best" departSpeed="max" from="88191070#0" to="-494343252#11"/>
    <trip id="veh225" type="veh_passenger" depart="1475.86" departLane="best" from="-190256572#0" to="464366516#1"/>
    <trip id="veh226" type="veh_passenger" depart="1482.42" departLane="best" from="183669338#0" to="-494343252#8"/>
    <trip id="veh227" type="veh_passenger" depart="1488.98" departLane="best" from="31954377#2" to="494343260"/>
    <trip id="veh228" type="veh_passenger" depart="1495.54" departLane="best" from="-30270057#2" to="263159366#4"/>
    <trip id="veh229" type="veh_passenger" depart="1502.10" departLane="best" from="353967234#2" to="-190256571#0"/>
    <trip id="veh230" type="veh_passenger" depart="1508.66" departLane="best" from="-186593866#4" to="-1052634123"/>
    <trip id="veh231" type="veh_passenger" depart="1515.22" departLane="best" from="88191079" to="136178317"/>
    <trip id="veh232" type="veh_passenger" depart="1521.78" departLane="best" departSpeed="max" from="326344763" to="-182107018#1"/>
    <trip id="veh233" type="veh_passenger" depart="1528.34" departLane="best" from="30270057#1" to="31954377#1"/>
    <trip id="veh234" type="veh_passenger" depart="1534.90" departLane="best" departSpeed="max" from="-183669338#2" to="494343260"/>
    <trip id="veh235" type="veh_passenger" depart="1541.46" departLane="best" from="494667421#1" to="263159366#2"/>
    <trip id="veh236" type="veh_passenger" depart="1548.02" departLane="best" from="-190256571#4" to="88336595#0"/>
    <trip id="veh237" type="veh_passenger" depart="1554.58" departLane="best" from="494343241#0" to="-91198487"/>
    <trip id="veh238" type="veh_passenger" depart="1561.14" departLane="best" from="-186593866#2" to="88191087#4"/>
    <trip id="veh239" type="veh_passenger" depart="1567.70" departLane="best" departSpeed="max" from="243254026#0" to="690847317#0"/>
    <trip id="veh240" type="veh_passenger" depart="1574.25" departLane="best" departSpeed="max" from="326344763" to="182107014#0"/>
    <trip id="veh241" type="veh_passenger" depart="1580.81" departLane="best" from="-690847317#0" to="494667420#3"/>
    <trip id="veh242" type="veh_passenger" depart="1587.37" departLane="best" from="182107018#6" to="182107019#2"/>