<routes xmlns:xsi="http://www.w3.org/2001/XMLSchema-instance" xsi:noNamespaceSchemaLocation="http://sumo.dlr.de/xsd/routes_file.xsd">
<vType accel="3.0" decel="4.5" sigma="0.5" length="2.0" minGap="0.5" maxSpeed="15.0" guiShape="bicycle" color="255,0,0" id="bicycle_tricycle"/>
    <vehicle id="aeast_luna_0.0" depart="0.00" type="bicycle_tricycle">
        <route edges="east_luna_0 south_roa_1 west_recto_2 north_osmena_1 north_osmena_2 north_osmena_3" />
    </vehicle>
    <vehicle id="aeast_recto_0.0" depart="0.00" type="bicycle_tricycle">
        <route edges="east_recto_0 east_recto_1 east_recto_2 south_corrales_2" />
    </vehicle>
    <vehicle id="aeast_recto_1.0" depart="0.00" type="bicycle_tricycle">
        <route edges="east_recto_1 east_recto_2 east_recto_3" />
    </vehicle>
    <vehicle id="anorth_osmena_0.0" depart="0.00" type="bicycle_tricycle">
        <route edges="north_osmena_0 north_osmena_1 north_osmena_2 north_osmena_3" />
    </vehicle>
    <vehicle id="anorth_osmena_1.0" depart="0.00" type="bicycle_tricycle">
        <route edges="north_osmena_1 north_osmena_2 north_osmena_3" />
    </vehicle>
    <vehicle id="anorth_osmena_2.0" depart="0.00" type="bicycle_tricycle">
        <route edges="north_osmena_2 north_osmena_3" />
    </vehicle>
    <vehicle id="anorth_roa_0.0" depart="0.00" type="bicycle_tricycle">
        <route edges="north_roa_0 east_luna_1 east_luna_2" />
    </vehicle>
    <vehicle id="asouth_osmena_1.0" depart="0.00" type="bicycle_tricycle">
        <route edges="south_osmena_1 south_osmena_2 south_osmena_3" />
    </vehicle>
    <vehicle id="asouth_osmena_2.0" depart="0.00" type="bicycle_tricycle">
        <route edges="south_osmena_2 south_osmena_3" />
    </vehicle>
    <vehicle id="asouth_roa_0.0" depart="0.00" type="bicycle_tricycle">
        <route edges="south_roa_0 south_roa_1 west_recto_2 west_recto_3" />
    </vehicle>
    <vehicle id="asouth_roa_1.0" depart="0.00" type="bicycle_tricycle">
        <route edges="south_roa_1 west_recto_2 west_recto_3" />
    </vehicle>
    <vehicle id="awest_luna_1.0" depart="0.00" type="bicycle_tricycle">
        <route edges="west_luna_1 west_luna_2 north_osmena_3" />
    </vehicle>
    <vehicle id="awest_recto_1.0" depart="0.00" type="bicycle_tricycle">
        <route edges="west_recto_1 west_recto_2 south_osmena_3" />
    </vehicle>
    <vehicle id="awest_recto_2.0" depart="0.00" type="bicycle_tricycle">
        <route edges="west_recto_2 north_osmena_1 north_osmena_2 north_osmena_3" />
    </vehicle>
    <vehicle id="awest_recto_1.1" depart="276.92" type="bicycle_tricycle">
        <route edges="west_recto_1 north_roa_0 west_luna_2 north_osmena_3" />
    </vehicle>
    <vehicle id="awest_luna_1.1" depart="360.00" type="bicycle_tricycle">
        <route edges="west_luna_1 west_luna_2 north_osmena_3" />
    </vehicle>
    <vehicle id="aeast_luna_0.1" depart="400.00" type="bicycle_tricycle">
        <route edges="east_luna_0 east_luna_1 south_corrales_1 south_corrales_2" />
    </vehicle>
    <vehicle id="asouth_roa_0.1" depart="514.29" type="bicycle_tricycle">
        <route edges="south_roa_0 west_luna_2 north_osmena_3" />
    </vehicle>
    <vehicle id="awest_recto_1.2" depart="553.85" type="bicycle_tricycle">
        <route edges="west_recto_1 north_roa_0 east_luna_1 east_luna_2" />
    </vehicle>
    <vehicle id="anorth_roa_0.1" depart="720.00" type="bicycle_tricycle">
        <route edges="north_roa_0 north_roa_1" />
    </vehicle>
    <vehicle id="awest_luna_1.2" depart="720.00" type="bicycle_tricycle">
        <route edges="west_luna_1 west_luna_2 north_osmena_3" />
    </vehicle>
    <vehicle id="awest_recto_2.1" depart="720.00" type="bicycle_tricycle">
        <route edges="west_recto_2 west_recto_3" />
    </vehicle>
    <vehicle id="aeast_luna_0.2" depart="800.00" type="bicycle_tricycle">
        <route edges="east_luna_0 north_roa_1" />
    </vehicle>
    <vehicle id="awest_recto_1.3" depart="830.77" type="bicycle_tricycle">
        <route edges="west_recto_1 west_recto_2 west_recto_3" />
    </vehicle>
    <vehicle id="asouth_roa_0.2" depart="1028.57" type="bicycle_tricycle">
        <route edges="south_roa_0 west_luna_2 south_osmena_1 south_osmena_2 south_osmena_3" />
    </vehicle>
    <vehicle id="awest_luna_1.3" depart="1080.00" type="bicycle_tricycle">
        <route edges="west_luna_1 west_luna_2 north_osmena_3" />
    </vehicle>
    <vehicle id="awest_recto_1.4" depart="1107.69" type="bicycle_tricycle">
        <route edges="west_recto_1 west_recto_2 north_osmena_1 north_osmena_2 north_osmena_3" />
    </vehicle>
    <vehicle id="aeast_luna_0.3" depart="1200.00" type="bicycle_tricycle">
        <route edges="east_luna_0 east_luna_1 south_corrales_1 south_corrales_2" />
    </vehicle>
    <vehicle id="aeast_recto_0.1" depart="1200.00" type="bicycle_tricycle">
        <route edges="east_recto_0 east_recto_1 east_recto_2 south_corrales_2" />
    </vehicle>
    <vehicle id="aeast_recto_1.1" depart="1200.00" type="bicycle_tricycle">
        <route edges="east_recto_1 east_recto_2 east_recto_3" />
    </vehicle>
    <vehicle id="awest_recto_1.5" depart="1384.62" type="bicycle_tricycle">
        <route edges="west_recto_1 west_recto_2 north_osmena_1 north_osmena_2 north_osmena_3" />
    </vehicle>
    <vehicle id="anorth_roa_0.2" depart="1440.00" type="bicycle_tricycle">
        <route edges="north_roa_0 east_luna_1 south_corrales_1 west_recto_1 west_recto_2 south_osmena_3" />
    </vehicle>
    <vehicle id="awest_luna_1.4" depart="1440.00" type="bicycle_tricycle">
        <route edges="west_luna_1 south_roa_1 west_recto_2 west_recto_3" />
    </vehicle>
    <vehicle id="awest_recto_2.2" depart="1440.00" type="bicycle_tricycle">
        <route edges="west_recto_2 west_recto_3" />
    </vehicle>
    <vehicle id="asouth_roa_0.3" depart="1542.86" type="bicycle_tricycle">
        <route edges="south_roa_0 south_roa_1 west_recto_2 west_recto_3" />
    </vehicle>
    <vehicle id="aeast_luna_0.4" depart="1600.00" type="bicycle_tricycle">
        <route edges="east_luna_0 north_roa_1" />
    </vehicle>
    <vehicle id="awest_recto_1.6" depart="1661.54" type="bicycle_tricycle">
        <route edges="west_recto_1 west_recto_2 west_recto_3" />
    </vehicle>
    <vehicle id="awest_luna_1.5" depart="1800.00" type="bicycle_tricycle">
        <route edges="west_luna_1 south_roa_1 west_recto_2 north_osmena_1 north_osmena_2 north_osmena_3" />
    </vehicle>
    <vehicle id="awest_recto_1.7" depart="1938.46" type="bicycle_tricycle">
        <route edges="west_recto_1 west_recto_2 west_recto_3" />
    </vehicle>
    <vehicle id="aeast_luna_0.5" depart="2000.00" type="bicycle_tricycle">
        <route edges="east_luna_0 south_roa_1 west_recto_2 west_recto_3" />
    </vehicle>
    <vehicle id="asouth_roa_0.4" depart="2057.14" type="bicycle_tricycle">
        <route edges="south_roa_0 south_roa_1 west_recto_2 west_recto_3" />
    </vehicle>
    <vehicle id="anorth_roa_0.3" depart="2160.00" type="bicycle_tricycle">
        <route edges="north_roa_0 north_roa_1" />
    </vehicle>
    <vehicle id="awest_luna_1.6" depart="2160.00" type="bicycle_tricycle">
        <route edges="west_luna_1 west_luna_2 north_osmena_3" />
    </vehicle>
    <vehicle id="awest_recto_2.3" depart="2160.00" type="bicycle_tricycle">
        <route edges="west_recto_2 west_recto_3" />
    </vehicle>
    <vehicle id="awest_recto_1.8" depart="2215.38" type="bicycle_tricycle">
        <route edges="west_recto_1 west_recto_2 west_recto_3" />
    </vehicle>
    <vehicle id="aeast_luna_0.6" depart="2400.00" type="bicycle_tricycle">
        <route edges="east_luna_0 east_luna_1 south_corrales_1 south_corrales_2" />
    </vehicle>
    <vehicle id="aeast_recto_0.2" depart="2400.00" type="bicycle_tricycle">
        <route edges="east_recto_0 east_recto_1 east_recto_2 east_recto_3" />
    </vehicle>
    <vehicle id="aeast_recto_1.2" depart="2400.00" type="bicycle_tricycle">
        <route edges="east_recto_1 east_recto_2 east_recto_3" />
    </vehicle>
    <vehicle id="awest_recto_1.9" depart="2492.31" type="bicycle_tricycle">
        <route edges="west_recto_1 north_roa_0 west_luna_2 north_osmena_3" />
    </vehicle>
    <vehicle id="awest_luna_1.7" depart="2520.00" type="bicycle_tricycle">
        <route edges="west_luna_1 west_luna_2 north_osmena_3" />
    </vehicle>
    <vehicle id="asouth_roa_0.5" depart="2571.43" type="bicycle_tricycle">
        <route edges="south_roa_0 south_roa_1 west_recto_2 west_recto_3" />
    </vehicle>
    <vehicle id="awest_recto_1.10" depart="2769.23" type="bicycle_tricycle">
        <route edges="west_recto_1 west_recto_2 north_osmena_1 north_osmena_2 north_osmena_3" />
    </vehicle>
    <vehicle id="aeast_luna_0.7" depart="2800.00" type="bicycle_tricycle">
        <route edges="east_luna_0 north_roa_1" />
    </vehicle>
    <vehicle id="anorth_roa_0.4" depart="2880.00" type="bicycle_tricycle">
        <route edges="north_roa_0 north_roa_1" />
    </vehicle>
    <vehicle id="awest_luna_1.8" depart="2880.00" type="bicycle_tricycle">
        <route edges="west_luna_1 west_luna_2 north_osmena_3" />
    </vehicle>
    <vehicle id="awest_recto_2.4" depart="2880.00" type="bicycle_tricycle">
        <route edges="west_recto_2 south_osmena_3" />
    </vehicle>
    <vehicle id="awest_recto_1.11" depart="3046.15" type="bicycle_tricycle">
        <route edges="west_recto_1 west_recto_2 west_recto_3" />
    </vehicle>
    <vehicle id="asouth_roa_0.6" depart="3085.71" type="bicycle_tricycle">
        <route edges="south_roa_0 south_roa_1 west_recto_2 west_recto_3" />
    </vehicle>
    <vehicle id="aeast_luna_0.8" depart="3200.00" type="bicycle_tricycle">
        <route edges="east_luna_0 north_roa_1" />
    </vehicle>
    <vehicle id="awest_luna_1.9" depart="3240.00" type="bicycle_tricycle">
        <route edges="west_luna_1 west_luna_2 south_osmena_1 south_osmena_2 south_osmena_3" />
    </vehicle>
    <vehicle id="awest_recto_1.12" depart="3323.08" type="bicycle_tricycle">
        <route edges="west_recto_1 west_recto_2 west_recto_3" />
    </vehicle>
    <vehicle id="aeast_luna_0#1.0" depart="3600.00" type="bicycle_tricycle">
        <route edges="east_luna_0 east_luna_1 east_luna_2" />
    </vehicle>
    <vehicle id="aeast_recto_0#1.0" depart="3600.00" type="bicycle_tricycle">
        <route edges="east_recto_0 east_recto_1 east_recto_2 east_recto_3" />
    </vehicle>
    <vehicle id="aeast_recto_1#1.0" depart="3600.00" type="bicycle_tricycle">
        <route edges="east_recto_1 east_recto_2 east_recto_3" />
    </vehicle>
    <vehicle id="anorth_osmena_0#1.0" depart="3600.00" type="bicycle_tricycle">
        <route edges="north_osmena_0 north_osmena_1 north_osmena_2 north_osmena_3" />
    </vehicle>
    <vehicle id="anorth_osmena_1#1.0" depart="3600.00" type="bicycle_tricycle">
        <route edges="north_osmena_1 north_osmena_2 north_osmena_3" />
    </vehicle>
    <vehicle id="anorth_osmena_2#1.0" depart="3600.00" type="bicycle_tricycle">
        <route edges="north_osmena_2 north_osmena_3" />
    </vehicle>
    <vehicle id="anorth_roa_0#1.0" depart="3600.00" type="bicycle_tricycle">
        <route edges="north_roa_0 north_roa_1" />
    </vehicle>
    <vehicle id="asouth_osmena_0#1.0" depart="3600.00" type="bicycle_tricycle">
        <route edges="south_osmena_0 south_osmena_1 south_osmena_2 south_osmena_3" />
    </vehicle>
    <vehicle id="asouth_osmena_1#1.0" depart="3600.00" type="bicycle_tricycle">
        <route edges="south_osmena_1 south_osmena_2 south_osmena_3" />
    </vehicle>
    <vehicle id="asouth_osmena_2#1.0" depart="3600.00" type="bicycle_tricycle">
        <route edges="south_osmena_2 east_recto_1 east_recto_2 east_recto_3" />
    </vehicle>
    <vehicle id="asouth_roa_0#1.0" depart="3600.00" type="bicycle_tricycle">
        <route edges="south_roa_0 south_roa_1 west_recto_2 west_recto_3" />
    </vehicle>
    <vehicle id="asouth_roa_1#1.0" depart="3600.00" type="bicycle_tricycle">
        <route edges="south_roa_1 west_recto_2 south_osmena_3" />
    </vehicle>
    <vehicle id="awest_luna_1#1.0" depart="3600.00" type="bicycle_tricycle">
        <route edges="west_luna_1 west_luna_2 north_osmena_3" />
    </vehicle>
    <vehicle id="awest_recto_1#1.0" depart="3600.00" type="bicycle_tricycle">
        <route edges="west_recto_1 west_recto_2 west_recto_3" />
    </vehicle>
    <vehicle id="awest_recto_2#1.0" depart="3600.00" type="bicycle_tricycle">
        <route edges="west_recto_2 west_recto_3" />
    </vehicle>
    <vehicle id="awest_recto_1#1.1" depart="3780.00" type="bicycle_tricycle">
        <route edges="west_recto_1 west_recto_2 south_osmena_3" />
    </vehicle>
    <vehicle id="awest_luna_1#1.1" depart="3960.00" type="bicycle_tricycle">
        <route edges="west_luna_1 west_luna_2 north_osmena_3" />
    </vehicle>
    <vehicle id="awest_recto_1#1.2" depart="3960.00" type="bicycle_tricycle">
        <route edges="west_recto_1 west_recto_2 north_osmena_1 north_osmena_2 north_osmena_3" />
    </vehicle>
    <vehicle id="aeast_luna_0#1.1" depart="4000.00" type="bicycle_tricycle">
        <route edges="east_luna_0 east_luna_1 south_corrales_1 east_recto_3" />
    </vehicle>
    <vehicle id="awest_recto_2#1.1" depart="4050.00" type="bicycle_tricycle">
        <route edges="west_recto_2 west_recto_3" />
    </vehicle>
    <vehicle id="asouth_roa_0#1.1" depart="4114.29" type="bicycle_tricycle">
        <route edges="south_roa_0 east_luna_1 east_luna_2" />
    </vehicle>
    <vehicle id="awest_recto_1#1.3" depart="4140.00" type="bicycle_tricycle">
        <route edges="west_recto_1 west_recto_2 south_osmena_3" />
    </vehicle>
    <vehicle id="aeast_recto_0#1.1" depart="4200.00" type="bicycle_tricycle">
        <route edges="east_recto_0 east_recto_1 east_recto_2 south_corrales_2" />
    </vehicle>
    <vehicle id="aeast_recto_1#1.1" depart="4320.00" type="bicycle_tricycle">
        <route edges="east_recto_1 east_recto_2 east_recto_3" />
    </vehicle>
    <vehicle id="anorth_roa_0#1.1" depart="4320.00" type="bicycle_tricycle">
        <route edges="north_roa_0 north_roa_1" />
    </vehicle>
    <vehicle id="awest_luna_1#1.2" depart="4320.00" type="bicycle_tricycle">
        <route edges="west_luna_1 west_luna_2 north_osmena_3" />
    </vehicle>
    <vehicle id="awest_recto_1#1.4" depart="4320.00" type="bicycle_tricycle">
        <route edges="west_recto_1 west_recto_2 north_osmena_1 north_osmena_2 north_osmena_3" />
    </vehicle>
    <vehicle id="aeast_luna_0#1.2" depart="4400.00" type="bicycle_tricycle">
        <route edges="east_luna_0 north_roa_1" />
    </vehicle>
    <vehicle id="awest_recto_1#1.5" depart="4500.00" type="bicycle_tricycle">
        <route edges="west_recto_1 north_roa_0 north_roa_1" />
    </vehicle>
    <vehicle id="awest_recto_2#1.2" depart="4500.00" type="bicycle_tricycle">
        <route edges="west_recto_2 north_osmena_1 north_osmena_2 north_osmena_3" />
    </vehicle>
    <vehicle id="asouth_roa_0#1.2" depart="4628.57" type="bicycle_tricycle">
        <route edges="south_roa_0 south_roa_1 west_recto_2 west_recto_3" />
    </vehicle>
    <vehicle id="awest_luna_1#1.3" depart="4680.00" type="bicycle_tricycle">
        <route edges="west_luna_1 west_luna_2 north_osmena_3" />
    </vehicle>
    <vehicle id="awest_recto_1#1.6" depart="4680.00" type="bicycle_tricycle">
        <route edges="west_recto_1 west_recto_2 west_recto_3" />
    </vehicle>
    <vehicle id="aeast_luna_0#1.3" depart="4800.00" type="bicycle_tricycle">
        <route edges="east_luna_0 east_luna_1 south_corrales_1 west_recto_1 west_recto_2 south_osmena_3" />
    </vehicle>
    <vehicle id="aeast_recto_0#1.2" depart="4800.00" type="bicycle_tricycle">
        <route edges="east_recto_0 east_recto_1 east_recto_2 north_corrales_1 east_luna_2" />
    </vehicle>
    <vehicle id="awest_recto_1#1.7" depart="4860.00" type="bicycle_tricycle">
        <route edges="west_recto_1 west_recto_2 south_osmena_3" />
    </vehicle>
    <vehicle id="awest_recto_2#1.3" depart="4950.00" type="bicycle_tricycle">
        <route edges="west_recto_2 south_osmena_3" />
    </vehicle>
    <vehicle id="aeast_recto_1#1.2" depart="5040.00" type="bicycle_tricycle">
        <route edges="east_recto_1 east_recto_2 south_corrales_2" />
    </vehicle>
    <vehicle id="anorth_roa_0#1.2" depart="5040.00" type="bicycle_tricycle">
        <route edges="north_roa_0 north_roa_1" />
    </vehicle>
    <vehicle id="awest_luna_1#1.4" depart="5040.00" type="bicycle_tricycle">
        <route edges="west_luna_1 south_roa_1 west_recto_2 west_recto_3" />
    </vehicle>
    <vehicle id="awest_recto_1#1.8" depart="5040.00" type="bicycle_tricycle">
        <route edges="west_recto_1 west_recto_2 west_recto_3" />
    </vehicle>
    <vehicle id="asouth_roa_0#1.3" depart="5142.86" type="bicycle_tricycle">
        <route edges="south_roa_0 south_roa_1 west_recto_2 south_osmena_3" />
    </vehicle>
    <vehicle id="aeast_luna_0#1.4" depart="5200.00" type="bicycle_tricycle">
        <route edges="east_luna_0 north_roa_1" />
    </vehicle>
    <vehicle id="awest_recto_1#1.9" depart="5220.00" type="bicycle_tricycle">
        <route edges="west_recto_1 north_roa_0 east_luna_1 south_corrales_1 east_recto_3" />
    </vehicle>
    <vehicle id="aeast_recto_0#1.3" depart="5400.00" type="bicycle_tricycle">
        <route edges="east_recto_0 east_recto_1 east_recto_2 south_corrales_2" />
    </vehicle>
    <vehicle id="asouth_osmena_2#1.1" depart="5400.00" type="bicycle_tricycle">
        <route edges="south_osmena_2 east_recto_1 east_recto_2 east_recto_3" />
    </vehicle>
    <vehicle id="awest_luna_1#1.5" depart="5400.00" type="bicycle_tricycle">
        <route edges="west_luna_1 west_luna_2 north_osmena_3" />
    </vehicle>
    <vehicle id="awest_recto_1#1.10" depart="5400.00" type="bicycle_tricycle">
        <route edges="west_recto_1 west_recto_2 west_recto_3" />
    </vehicle>
    <vehicle id="awest_recto_2#1.4" depart="5400.00" type="bicycle_tricycle">
        <route edges="west_recto_2 west_recto_3" />
    </vehicle>
    <vehicle id="awest_recto_1#1.11" depart="5580.00" type="bicycle_tricycle">
        <route edges="west_recto_1 west_recto_2 west_recto_3" />
    </vehicle>
    <vehicle id="aeast_luna_0#1.5" depart="5600.00" type="bicycle_tricycle">
        <route edges="east_luna_0 east_luna_1 east_luna_2" />
    </vehicle>
    <vehicle id="asouth_roa_0#1.4" depart="5657.14" type="bicycle_tricycle">
        <route edges="south_roa_0 south_roa_1 west_recto_2 south_osmena_3" />
    </vehicle>
    <vehicle id="aeast_recto_1#1.3" depart="5760.00" type="bicycle_tricycle">
        <route edges="east_recto_1 east_recto_2 east_recto_3" />
    </vehicle>
    <vehicle id="anorth_roa_0#1.3" depart="5760.00" type="bicycle_tricycle">
        <route edges="north_roa_0 north_roa_1" />
    </vehicle>
    <vehicle id="awest_luna_1#1.6" depart="5760.00" type="bicycle_tricycle">
        <route edges="west_luna_1 west_luna_2 south_osmena_1 south_osmena_2 east_recto_1 east_recto_2 east_recto_3" />
    </vehicle>
    <vehicle id="awest_recto_1#1.12" depart="5760.00" type="bicycle_tricycle">
        <route edges="west_recto_1 north_roa_0 north_roa_1" />
    </vehicle>
    <vehicle id="awest_recto_2#1.5" depart="5850.00" type="bicycle_tricycle">
        <route edges="west_recto_2 west_recto_3" />
    </vehicle>
    <vehicle id="awest_recto_1#1.13" depart="5940.00" type="bicycle_tricycle">
        <route edges="west_recto_1 west_recto_2 west_recto_3" />
    </vehicle>
    <vehicle id="aeast_luna_0#1.6" depart="6000.00" type="bicycle_tricycle">
        <route edges="east_luna_0 north_roa_1" />
    </vehicle>
    <vehicle id="aeast_recto_0#1.4" depart="6000.00" type="bicycle_tricycle">
        <route edges="east_recto_0 east_recto_1 east_recto_2 east_recto_3" />
    </vehicle>
    <vehicle id="awest_luna_1#1.7" depart="6120.00" type="bicycle_tricycle">
        <route edges="west_luna_1 south_roa_1 west_recto_2 west_recto_3" />
    </vehicle>
    <vehicle id="awest_recto_1#1.14" depart="6120.00" type="bicycle_tricycle">
        <route edges="west_recto_1 west_recto_2 west_recto_3" />
    </vehicle>
    <vehicle id="asouth_roa_0#1.5" depart="6171.43" type="bicycle_tricycle">
        <route edges="south_roa_0 west_luna_2 north_osmena_3" />
    </vehicle>
    <vehicle id="awest_recto_1#1.15" depart="6300.00" type="bicycle_tricycle">
        <route edges="west_recto_1 west_recto_2 west_recto_3" />
    </vehicle>
    <vehicle id="awest_recto_2#1.6" depart="6300.00" type="bicycle_tricycle">
        <route edges="west_recto_2 west_recto_3" />
    </vehicle>
    <vehicle id="aeast_luna_0#1.7" depart="6400.00" type="bicycle_tricycle">
        <route edges="east_luna_0 east_luna_1 east_luna_2" />
    </vehicle>
    <vehicle id="aeast_recto_1#1.4" depart="6480.00" type="bicycle_tricycle">
        <route edges="east_recto_1 east_recto_2 east_recto_3" />
    </vehicle>
    <vehicle id="anorth_roa_0#1.4" depart="6480.00" type="bicycle_tricycle">
        <route edges="north_roa_0 north_roa_1" />
    </vehicle>
    <vehicle id="awest_luna_1#1.8" depart="6480.00" type="bicycle_tricycle">
        <route edges="west_luna_1 south_roa_1 west_recto_2 west_recto_3" />
    </vehicle>
    <vehicle id="awest_recto_1#1.16" depart="6480.00" type="bicycle_tricycle">
        <route edges="west_recto_1 west_recto_2 west_recto_3" />
    </vehicle>
    <vehicle id="aeast_recto_0#1.5" depart="6600.00" type="bicycle_tricycle">
        <route edges="east_recto_0 east_recto_1 east_recto_2 north_corrales_1 north_corrales_2" />
    </vehicle>
    <vehicle id="awest_recto_1#1.17" depart="6660.00" type="bicycle_tricycle">
        <route edges="west_recto_1 west_recto_2 north_osmena_1 north_osmena_2 north_osmena_3" />
    </vehicle>
    <vehicle id="asouth_roa_0#1.6" depart="6685.71" type="bicycle_tricycle">
        <route edges="south_roa_0 east_luna_1 east_luna_2" />
    </vehicle>
    <vehicle id="awest_recto_2#1.7" depart="6750.00" type="bicycle_tricycle">
        <route edges="west_recto_2 west_recto_3" />
    </vehicle>
    <vehicle id="aeast_luna_0#1.8" depart="6800.00" type="bicycle_tricycle">
        <route edges="east_luna_0 east_luna_1 south_corrales_1 west_recto_1 west_recto_2 north_osmena_1 north_osmena_2 north_osmena_3" />
    </vehicle>
    <vehicle id="awest_luna_1#1.9" depart="6840.00" type="bicycle_tricycle">
        <route edges="west_luna_1 west_luna_2 south_osmena_1 south_osmena_2 south_osmena_3" />
    </vehicle>
    <vehicle id="awest_recto_1#1.18" depart="6840.00" type="bicycle_tricycle">
        <route edges="west_recto_1 west_recto_2 west_recto_3" />
    </vehicle>
    <vehicle id="awest_recto_1#1.19" depart="7020.00" type="bicycle_tricycle">
        <route edges="west_recto_1 west_recto_2 west_recto_3" />
    </vehicle>
    <vehicle id="aeast_florentino_0#2.0" depart="7200.00" type="bicycle_tricycle">
        <route edges="east_florentino_0 south_osmena_2 west_recto_3" />
    </vehicle>
    <vehicle id="aeast_luna_0#2.0" depart="7200.00" type="bicycle_tricycle">
        <route edges="east_luna_0 east_luna_1 south_corrales_1 south_corrales_2" />
    </vehicle>
    <vehicle id="aeast_recto_0#2.0" depart="7200.00" type="bicycle_tricycle">
        <route edges="east_recto_0 east_recto_1 east_recto_2 south_corrales_2" />
    </vehicle>
    <vehicle id="aeast_recto_1#2.0" depart="7200.00" type="bicycle_tricycle">
        <route edges="east_recto_1 east_recto_2 north_corrales_1 north_corrales_2" />
    </vehicle>
    <vehicle id="anorth_corrales_1#2.0" depart="7200.00" type="bicycle_tricycle">
        <route edges="north_corrales_1 north_corrales_2" />
    </vehicle>
    <vehicle id="anorth_osmena_0#2.0" depart="7200.00" type="bicycle_tricycle">
        <route edges="north_osmena_0 west_recto_3" />
    </vehicle>
    <vehicle id="anorth_osmena_1#2.0" depart="7200.00" type="bicycle_tricycle">
        <route edges="north_osmena_1 north_osmena_2 north_osmena_3" />
    </vehicle>
    <vehicle id="anorth_osmena_2#2.0" depart="7200.00" type="bicycle_tricycle">
        <route edges="north_osmena_2 north_osmena_3" />
    </vehicle>
    <vehicle id="anorth_roa_0#2.0" depart="7200.00" type="bicycle_tricycle">
        <route edges="north_roa_0 east_luna_1 south_corrales_1 south_corrales_2" />
    </vehicle>
    <vehicle id="asouth_corrales_0#2.0" depart="7200.00" type="bicycle_tricycle">
        <route edges="south_corrales_0 south_corrales_1 west_recto_1 west_recto_2 west_recto_3" />
    </vehicle>
    <vehicle id="asouth_osmena_0#2.0" depart="7200.00" type="bicycle_tricycle">
        <route edges="south_osmena_0 south_osmena_1 west_florentino_0" />
    </vehicle>
    <vehicle id="asouth_osmena_1#2.0" depart="7200.00" type="bicycle_tricycle">
        <route edges="south_osmena_1 west_florentino_0" />
    </vehicle>
    <vehicle id="asouth_osmena_2#2.0" depart="7200.00" type="bicycle_tricycle">
        <route edges="south_osmena_2 south_osmena_3" />
    </vehicle>
    <vehicle id="asouth_roa_0#2.0" depart="7200.00" type="bicycle_tricycle">
        <route edges="south_roa_0 west_luna_2 south_osmena_1 south_osmena_2 south_osmena_3" />
    </vehicle>
    <vehicle id="asouth_roa_1#2.0" depart="7200.00" type="bicycle_tricycle">
        <route edges="south_roa_1 west_recto_2 north_osmena_1 north_osmena_2 north_osmena_3" />
    </vehicle>
    <vehicle id="awest_luna_1#2.0" depart="7200.00" type="bicycle_tricycle">
        <route edges="west_luna_1 west_luna_2 north_osmena_3" />
    </vehicle>
    <vehicle id="awest_recto_1#2.0" depart="7200.00" type="bicycle_tricycle">
        <route edges="west_recto_1 west_recto_2 south_osmena_3" />
    </vehicle>
    <vehicle id="awest_recto_2#2.0" depart="7200.00" type="bicycle_tricycle">
        <route edges="west_recto_2 west_recto_3" />
    </vehicle>
    <vehicle id="awest_recto_1#2.1" depart="7328.57" type="bicycle_tricycle">
        <route edges="west_recto_1 north_roa_0 east_luna_1 east_luna_2" />
    </vehicle>
    <vehicle id="awest_recto_1#2.2" depart="7457.14" type="bicycle_tricycle">
        <route edges="west_recto_1 west_recto_2 north_osmena_1 north_osmena_2 north_osmena_3" />
    </vehicle>
    <vehicle id="awest_luna_1#2.1" depart="7527.27" type="bicycle_tricycle">
        <route edges="west_luna_1 west_luna_2 south_osmena_1 south_osmena_2 south_osmena_3" />
    </vehicle>
    <vehicle id="awest_recto_2#2.1" depart="7527.27" type="bicycle_tricycle">
        <route edges="west_recto_2 west_recto_3" />
    </vehicle>
    <vehicle id="aeast_luna_0#2.1" depart="7560.00" type="bicycle_tricycle">
        <route edges="east_luna_0 east_luna_1 south_corrales_1 south_corrales_2" />
    </vehicle>
    <vehicle id="awest_recto_1#2.3" depart="7585.71" type="bicycle_tricycle">
        <route edges="west_recto_1 west_recto_2 west_recto_3" />
    </vehicle>
    <vehicle id="asouth_roa_0#2.1" depart="7600.00" type="bicycle_tricycle">
        <route edges="south_roa_0 south_roa_1 west_recto_2 west_recto_3" />
    </vehicle>
    <vehicle id="awest_recto_1#2.4" depart="7714.28" type="bicycle_tricycle">
        <route edges="west_recto_1 west_recto_2 south_osmena_3" />
    </vehicle>
    <vehicle id="aeast_recto_0#2.1" depart="7714.29" type="bicycle_tricycle">
        <route edges="east_recto_0 east_recto_1 east_recto_2 north_corrales_1 north_corrales_2" />
    </vehicle>
    <vehicle id="anorth_roa_0#2.1" depart="7800.00" type="bicycle_tricycle">
        <route edges="north_roa_0 east_luna_1 south_corrales_1 east_recto_3" />
    </vehicle>
    <vehicle id="awest_recto_1#2.5" depart="7842.86" type="bicycle_tricycle">
        <route edges="west_recto_1 west_recto_2 south_osmena_3" />
    </vehicle>
    <vehicle id="awest_luna_1#2.2" depart="7854.54" type="bicycle_tricycle">
        <route edges="west_luna_1 west_luna_2 north_osmena_3" />
    </vehicle>
    <vehicle id="awest_recto_2#2.2" depart="7854.54" type="bicycle_tricycle">
        <route edges="west_recto_2 north_osmena_1 north_osmena_2 north_osmena_3" />
    </vehicle>
    <vehicle id="aeast_luna_0#2.2" depart="7920.00" type="bicycle_tricycle">
        <route edges="east_luna_0 east_luna_1 east_luna_2" />
    </vehicle>
    <vehicle id="aeast_recto_1#2.1" depart="7920.00" type="bicycle_tricycle">
        <route edges="east_recto_1 east_recto_2 south_corrales_2" />
    </vehicle>
    <vehicle id="awest_recto_1#2.6" depart="7971.43" type="bicycle_tricycle">
        <route edges="west_recto_1 west_recto_2 west_recto_3" />
    </vehicle>
    <vehicle id="asouth_roa_0#2.2" depart="8000.00" type="bicycle_tricycle">
        <route edges="south_roa_0 west_luna_2 south_osmena_1 south_osmena_2 south_osmena_3" />
    </vehicle>
    <vehicle id="awest_recto_1#2.7" depart="8100.00" type="bicycle_tricycle">
        <route edges="west_recto_1 west_recto_2 west_recto_3" />
    </vehicle>
    <vehicle id="asouth_osmena_2#2.1" depart="8100.00" type="bicycle_tricycle">
        <route edges="south_osmena_2 west_recto_3" />
    </vehicle>
    <vehicle id="awest_luna_1#2.3" depart="8181.82" type="bicycle_tricycle">
        <route edges="west_luna_1 west_luna_2 north_osmena_3" />
    </vehicle>
    <vehicle id="awest_recto_2#2.3" depart="8181.82" type="bicycle_tricycle">
        <route edges="west_recto_2 west_recto_3" />
    </vehicle>
    <vehicle id="awest_recto_1#2.8" depart="8228.57" type="bicycle_tricycle">