<routes xmlns:xsi="http://www.w3.org/2001/XMLSchema-instance" xsi:noNamespaceSchemaLocation="http://sumo.dlr.de/xsd/routes_file.xsd">
<vType id="bicycle_tricycle" accel="3.0" decel="4.5" sigma="0.5" length="2.0" minGap="0.5" maxSpeed="15.0" guiShape="bicycle" color="255,0,0" />

    <vehicle id="a0_0" depart="0.00" type="bicycle_tricycle">
        <route edges="south_osmena_0 east_luna_0 east_luna_1 east_luna_2" />
    </vehicle>
    <vehicle id="a0_1" depart="120.00" type="bicycle_tricycle">
        <route edges="west_luna_0 west_luna_1 south_roa_1 west_recto_2 west_recto_3" />
    </vehicle>
    <vehicle id="a0_2" depart="240.00" type="bicycle_tricycle">
        <route edges="south_roa_0 south_roa_1 west_recto_2 west_recto_3" />
    </vehicle>
    <vehicle id="a0_3" depart="360.00" type="bicycle_tricycle">
        <route edges="south_osmena_0 east_luna_0 north_roa_1" />
    </vehicle>
    <vehicle id="a0_4" depart="480.00" type="bicycle_tricycle">
        <route edges="south_osmena_0 south_osmena_1 south_osmena_2 east_recto_1 south_corrales_2" />
    </vehicle>
    <vehicle id="a0_5" depart="600.00" type="bicycle_tricycle">
        <route edges="north_osmena_0 east_recto_1 east_recto_2" />
    </vehicle>
    <vehicle id="a0_6" depart="720.00" type="bicycle_tricycle">
        <route edges="north_osmena_0 north_osmena_1 west_florentino_0" />
    </vehicle>
    <vehicle id="a0_7" depart="840.00" type="bicycle_tricycle">
        <route edges="east_recto_0 east_recto_1 north_corrales_1 east_luna_2" />
    </vehicle>
    <vehicle id="a0_8" depart="960.00" type="bicycle_tricycle">
        <route edges="west_luna_0 west_luna_1 west_luna_2 north_osmena_3" />
    </vehicle>
    <vehicle id="a0_9" depart="1080.00" type="bicycle_tricycle">
        <route edges="east_recto_0 east_recto_1 south_corrales_2" />
    </vehicle>
    <vehicle id="a0_10" depart="1200.00" type="bicycle_tricycle">
        <route edges="south_osmena_0 east_luna_0 east_luna_1 east_luna_2" />
    </vehicle>
    <vehicle id="a0_11" depart="1320.00" type="bicycle_tricycle">
        <route edges="east_florentino_0 north_osmena_2 east_luna_0 north_roa_1" />
    </vehicle>
    <vehicle id="a0_12" depart="1440.00" type="bicycle_tricycle">
        <route edges="north_corrales_0 west_recto_1 west_recto_2 north_osmena_1 north_osmena_2 north_osmena_3" />
    </vehicle>
    <vehicle id="a0_13" depart="1560.00" type="bicycle_tricycle">
        <route edges="east_recto_0 east_recto_1 east_recto_2" />
    </vehicle>
    <vehicle id="a0_14" depart="1680.00" type="bicycle_tricycle">
        <route edges="south_corrales_0 west_luna_1 west_luna_2 south_osmena_1 west_florentino_0" />
    </vehicle>
    <vehicle id="a0_15" depart="1800.00" type="bicycle_tricycle">
        <route edges="east_florentino_0 north_osmena_2 east_luna_0 north_roa_1 south_roa_0 west_luna_2 south_osmena_1 west_florentino_0" />
    </vehicle>
    <vehicle id="a0_16" depart="1920.00" type="bicycle_tricycle">
        <route edges="west_luna_0 west_luna_1 south_roa_1 west_recto_2 west_recto_3" />
    </vehicle>
    <vehicle id="a0_17" depart="2040.00" type="bicycle_tricycle">
        <route edges="south_corrales_0 west_luna_1 west_luna_2 north_osmena_3" />
    </vehicle>
    <vehicle id="a0_18" depart="2160.00" type="bicycle_tricycle">
        <route edges="west_luna_0 west_luna_1 north_roa_1 south_roa_0 east_luna_1 east_luna_2" />
    </vehicle>
    <vehicle id="a0_19" depart="2280.00" type="bicycle_tricycle">
        <route edges="west_recto_0 west_recto_1 north_roa_0 east_luna_1 south_corrales_1 east_recto_2" />
    </vehicle>
    <vehicle id="a0_20" depart="2400.00" type="bicycle_tricycle">
        <route edges="west_luna_0 west_luna_1 west_luna_2 north_osmena_3" />
    </vehicle>
    <vehicle id="a0_21" depart="2520.00" type="bicycle_tricycle">
        <route edges="west_luna_0 west_luna_1 west_luna_2 north_osmena_3" />
    </vehicle>
    <vehicle id="a0_22" depart="2640.00" type="bicycle_tricycle">
        <route edges="west_luna_0 west_luna_1 west_luna_2 north_osmena_3" />
    </vehicle>
    <vehicle id="a0_23" depart="2760.00" type="bicycle_tricycle">
        <route edges="south_osmena_0 east_luna_0 east_luna_1 east_luna_2" />
    </vehicle>
    <vehicle id="a0_24" depart="2880.00" type="bicycle_tricycle">
        <route edges="south_osmena_0 east_luna_0 east_luna_1 east_luna_2" />
    </vehicle>
    <vehicle id="a0_25" depart="3000.00" type="bicycle_tricycle">
        <route edges="south_corrales_0 south_corrales_1 west_recto_1 west_recto_2 south_osmena_3" />
    </vehicle>
    <vehicle id="a0_26" depart="3120.00" type="bicycle_tricycle">
        <route edges="east_florentino_0 south_osmena_2 south_osmena_3" />
    </vehicle>
    <vehicle id="a0_27" depart="3240.00" type="bicycle_tricycle">
        <route edges="west_luna_0 west_luna_1 north_roa_1 south_roa_0 east_luna_1 east_luna_2" />
    </vehicle>
    <vehicle id="a0_28" depart="3360.00" type="bicycle_tricycle">
        <route edges="south_roa_0 west_luna_2 south_osmena_1 west_florentino_0" />
    </vehicle>
    <vehicle id="a0_29" depart="3480.00" type="bicycle_tricycle">
        <route edges="east_florentino_0 north_osmena_2 east_luna_0 east_luna_1 east_luna_2" />
    </vehicle>

    <vehicle id="a3600_0" depart="3600.00" type="bicycle_tricycle">
        <route edges="south_corrales_0 west_luna_1 west_luna_2 north_osmena_3" />
    </vehicle>
    <vehicle id="a3600_1" depart="3697.30" type="bicycle_tricycle">
        <route edges="east_recto_0 east_recto_1 east_recto_2" />
    </vehicle>
    <vehicle id="a3600_2" depart="3794.59" type="bicycle_tricycle">
        <route edges="south_corrales_0 west_luna_1 west_luna_2 north_osmena_3" />
    </vehicle>
    <vehicle id="a3600_3" depart="3891.89" type="bicycle_tricycle">
        <route edges="east_recto_0 east_recto_1 north_corrales_1 north_corrales_2" />
    </vehicle>
    <vehicle id="a3600_4" depart="3989.19" type="bicycle_tricycle">
        <route edges="east_florentino_0 north_osmena_2 east_luna_0 north_roa_1" />
    </vehicle>
    <vehicle id="a3600_5" depart="4086.49" type="bicycle_tricycle">
        <route edges="west_luna_0 west_luna_1 west_luna_2 north_osmena_3" />
    </vehicle>
    <vehicle id="a3600_6" depart="4183.78" type="bicycle_tricycle">
        <route edges="east_recto_0 north_osmena_1 west_florentino_0" />
    </vehicle>
    <vehicle id="a3600_7" depart="4281.08" type="bicycle_tricycle">
        <route edges="south_osmena_0 south_osmena_1 west_florentino_0" />
    </vehicle>
    <vehicle id="a3600_8" depart="4378.38" type="bicycle_tricycle">
        <route edges="north_corrales_0 west_recto_1 north_roa_0 north_roa_1" />
    </vehicle>
    <vehicle id="a3600_9" depart="4475.68" type="bicycle_tricycle">
        <route edges="east_florentino_0 north_osmena_2 east_luna_0 east_luna_1 east_luna_2" />
    </vehicle>
    <vehicle id="a3600_10" depart="4572.97" type="bicycle_tricycle">
        <route edges="east_florentino_0 north_osmena_2 east_luna_0 north_roa_1" />
    </vehicle>
    <vehicle id="a3600_11" depart="4670.27" type="bicycle_tricycle">
        <route edges="west_recto_0 west_recto_1 west_recto_2 west_recto_3" />
    </vehicle>
    <vehicle id="a3600_12" depart="4767.57" type="bicycle_tricycle">
        <route edges="north_corrales_0 west_recto_1 west_recto_2 west_recto_3" />
    </vehicle>
    <vehicle id="a3600_13" depart="4864.86" type="bicycle_tricycle">
        <route edges="south_corrales_0 west_luna_1 north_roa_1 south_roa_0 east_luna_1 east_luna_2" />
    </vehicle>
    <vehicle id="a3600_14" depart="4962.16" type="bicycle_tricycle">
        <route edges="south_roa_0 south_roa_1 west_recto_2 west_recto_3" />
    </vehicle>
    <vehicle id="a3600_15" depart="5059.46" type="bicycle_tricycle">
        <route edges="west_luna_0 west_luna_1 west_luna_2 north_osmena_3" />
    </vehicle>
    <vehicle id="a3600_16" depart="5156.76" type="bicycle_tricycle">
        <route edges="east_recto_0 east_recto_1 north_corrales_1 north_corrales_2" />
    </vehicle>
    <vehicle id="a3600_17" depart="5254.05" type="bicycle_tricycle">
        <route edges="east_florentino_0 north_osmena_2 east_luna_0 east_luna_1 east_luna_2" />
    </vehicle>
    <vehicle id="a3600_18" depart="5351.35" type="bicycle_tricycle">
        <route edges="south_roa_0 west_luna_2 south_osmena_1 south_osmena_2 east_recto_1 north_corrales_1 north_corrales_2" />
    </vehicle>
    <vehicle id="a3600_19" depart="5448.65" type="bicycle_tricycle">
        <route edges="south_corrales_0 west_luna_1 north_roa_1 south_roa_0 east_luna_1 east_luna_2" />
    </vehicle>
    <vehicle id="a3600_20" depart="5545.95" type="bicycle_tricycle">
        <route edges="west_luna_0 west_luna_1 west_luna_2 south_osmena_1 west_florentino_0" />
    </vehicle>
    <vehicle id="a3600_21" depart="5643.24" type="bicycle_tricycle">
        <route edges="north_osmena_0 east_recto_1 east_recto_2" />
    </vehicle>
    <vehicle id="a3600_22" depart="5740.54" type="bicycle_tricycle">
        <route edges="east_florentino_0 north_osmena_2 north_osmena_3" />
    </vehicle>
    <vehicle id="a3600_23" depart="5837.84" type="bicycle_tricycle">
        <route edges="west_luna_0 west_luna_1 south_roa_1 west_recto_2 west_recto_3" />
    </vehicle>
    <vehicle id="a3600_24" depart="5935.14" type="bicycle_tricycle">
        <route edges="south_osmena_0 east_luna_0 east_luna_1 east_luna_2" />
    </vehicle>
    <vehicle id="a3600_25" depart="6032.43" type="bicycle_tricycle">
        <route edges="north_corrales_0 west_recto_1 west_recto_2 north_osmena_1 west_florentino_0" />
    </vehicle>
    <vehicle id="a3600_26" depart="6129.73" type="bicycle_tricycle">
        <route edges="north_corrales_0 west_recto_1 north_roa_0 north_roa_1" />
    </vehicle>
    <vehicle id="a3600_27" depart="6227.03" type="bicycle_tricycle">
        <route edges="east_recto_0 east_recto_1 south_corrales_2" />
    </vehicle>
    <vehicle id="a3600_28" depart="6324.32" type="bicycle_tricycle">
        <route edges="south_corrales_0 west_luna_1 west_luna_2 south_osmena_1 west_florentino_0" />
    </vehicle>
    <vehicle id="a3600_29" depart="6421.62" type="bicycle_tricycle">
        <route edges="east_florentino_0 north_osmena_2 east_luna_0 east_luna_1 east_luna_2" />
    </vehicle>
    <vehicle id="a3600_30" depart="6518.92" type="bicycle_tricycle">
        <route edges="south_osmena_0 east_luna_0 east_luna_1 east_luna_2" />
    </vehicle>
    <vehicle id="a3600_31" depart="6616.22" type="bicycle_tricycle">
        <route edges="east_recto_0 east_recto_1 east_recto_2" />
    </vehicle>
    <vehicle id="a3600_32" depart="6713.51" type="bicycle_tricycle">
        <route edges="south_roa_0 south_roa_1 west_recto_2 west_recto_3" />
    </vehicle>
    <vehicle id="a3600_33" depart="6810.81" type="bicycle_tricycle">
        <route edges="east_florentino_0 south_osmena_2 south_osmena_3" />
    </vehicle>
    <vehicle id="a3600_34" depart="6908.11" type="bicycle_tricycle">
        <route edges="north_osmena_0 north_osmena_1 north_osmena_2 east_luna_0 south_roa_1 west_recto_2 south_osmena_3" />
    </vehicle>
    <vehicle id="a3600_35" depart="7005.41" type="bicycle_tricycle">
        <route edges="west_luna_0 west_luna_1 south_roa_1 west_recto_2 west_recto_3" />
    </vehicle>
    <vehicle id="a3600_36" depart="7102.70" type="bicycle_tricycle">
        <route edges="south_osmena_0 east_luna_0 north_roa_1 south_roa_0 west_luna_2 north_osmena_3" />
    </vehicle>

    <vehicle id="a7200_0" depart="7200.00" type="bicycle_tricycle">
        <route edges="north_corrales_0 west_recto_1 west_recto_2 west_recto_3" />
    </vehicle>
    <vehicle id="a7200_1" depart="7275.00" type="bicycle_tricycle">
        <route edges="east_florentino_0 north_osmena_2 east_luna_0 east_luna_1 east_luna_2" />
    </vehicle>
    <vehicle id="a7200_2" depart="7350.00" type="bicycle_tricycle">
        <route edges="east_florentino_0 north_osmena_2 east_luna_0 east_luna_1 east_luna_2" />
    </vehicle>
    <vehicle id="a7200_3" depart="7425.00" type="bicycle_tricycle">
        <route edges="east_recto_0 south_osmena_3" />
    </vehicle>
    <vehicle id="a7200_4" depart="7500.00" type="bicycle_tricycle">
        <route edges="north_osmena_0 north_osmena_1 north_osmena_2 east_luna_0 north_roa_1" />
    </vehicle>
    <vehicle id="a7200_5" depart="7575.00" type="bicycle_tricycle">
        <route edges="west_luna_0 west_luna_1 north_roa_1" />
    </vehicle>
    <vehicle id="a7200_6" depart="7650.00" type="bicycle_tricycle">
        <route edges="south_osmena_0 east_luna_0 north_roa_1 south_roa_0 west_luna_2 north_osmena_3" />
    </vehicle>
    <vehicle id="a7200_7" depart="7725.00" type="bicycle_tricycle">
        <route edges="east_florentino_0 north_osmena_2 east_luna_0 east_luna_1 east_luna_2" />
    </vehicle>
    <vehicle id="a7200_8" depart="7800.00" type="bicycle_tricycle">
        <route edges="east_recto_0 east_recto_1 north_corrales_1 east_luna_2" />
    </vehicle>
    <vehicle id="a7200_9" depart="7875.00" type="bicycle_tricycle">
        <route edges="north_osmena_0 west_recto_3" />
    </vehicle>
    <vehicle id="a7200_10" depart="7950.00" type="bicycle_tricycle">
        <route edges="south_corrales_0 west_luna_1 west_luna_2 north_osmena_3" />
    </vehicle>
    <vehicle id="a7200_11" depart="8025.00" type="bicycle_tricycle">
        <route edges="west_recto_0 west_recto_1 west_recto_2 west_recto_3" />
    </vehicle>
    <vehicle id="a7200_12" depart="8100.00" type="bicycle_tricycle">
        <route edges="south_osmena_0 east_luna_0 east_luna_1 east_luna_2" />
    </vehicle>
    <vehicle id="a7200_13" depart="8175.00" type="bicycle_tricycle">
        <route edges="west_luna_0 west_luna_1 north_roa_1 south_roa_0 east_luna_1 south_corrales_1 south_corrales_2" />
    </vehicle>
    <vehicle id="a7200_14" depart="8250.00" type="bicycle_tricycle">
        <route edges="south_corrales_0 south_corrales_1 east_recto_2" />
    </vehicle>
    <vehicle id="a7200_15" depart="8325.00" type="bicycle_tricycle">
        <route edges="south_roa_0 west_luna_2 north_osmena_3" />
    </vehicle>
    <vehicle id="a7200_16" depart="8400.00" type="bicycle_tricycle">
        <route edges="south_roa_0 west_luna_2 north_osmena_3" />
    </vehicle>
    <vehicle id="a7200_17" depart="8475.00" type="bicycle_tricycle">
        <route edges="south_roa_0 east_luna_1 south_corrales_1 east_recto_2" />
    </vehicle>
    <vehicle id="a7200_18" depart="8550.00" type="bicycle_tricycle">
        <route edges="north_corrales_0 west_recto_1 west_recto_2 north_osmena_1 north_osmena_2 north_osmena_3" />
    </vehicle>
    <vehicle id="a7200_19" depart="8625.00" type="bicycle_tricycle">
        <route edges="east_recto_0 north_osmena_1 west_florentino_0" />
    </vehicle>
    <vehicle id="a7200_20" depart="8700.00" type="bicycle_tricycle">
        <route edges="south_osmena_0 east_luna_0 east_luna_1 east_luna_2" />
    </vehicle>
    <vehicle id="a7200_21" depart="8775.00" type="bicycle_tricycle">
        <route edges="west_luna_0 west_luna_1 west_luna_2 north_osmena_3" />
    </vehicle>
    <vehicle id="a7200_22" depart="8850.00" type="bicycle_tricycle">
        <route edges="west_luna_0 west_luna_1 west_luna_2 north_osmena_3" />
    </vehicle>
    <vehicle id="a7200_23" depart="8925.00" type="bicycle_tricycle">
        <route edges="south_osmena_0 east_luna_0 east_luna_1 east_luna_2" />
    </vehicle>
    <vehicle id="a7200_24" depart="9000.00" type="bicycle_tricycle">
        <route edges="south_roa_0 south_roa_1 west_recto_2 west_recto_3" />
    </vehicle>
    <vehicle id="a7200_25" depart="9075.00" type="bicycle_tricycle">
        <route edges="west_recto_0 west_recto_1 north_roa_0 north_roa_1" />
    </vehicle>
    <vehicle id="a7200_26" depart="9150.00" type="bicycle_tricycle">
        <route edges="north_osmena_0 east_recto_1 north_corrales_1 north_corrales_2" />
    </vehicle>
    <vehicle id="a7200_27" depart="9225.00" type="bicycle_tricycle">
        <route edges="north_corrales_0 west_recto_1 west_recto_2 west_recto_3" />
    </vehicle>
    <vehicle id="a7200_28" depart="9300.00" type="bicycle_tricycle">
        <route edges="east_recto_0 east_recto_1 north_corrales_1 east_luna_2" />
    </vehicle>
    <vehicle id="a7200_29" depart="9375.00" type="bicycle_tricycle">
        <route edges="west_luna_0 west_luna_1 west_luna_2 north_osmena_3" />
    </vehicle>
    <vehicle id="a7200_30" depart="9450.00" type="bicycle_tricycle">
        <route edges="west_recto_0 west_recto_1 west_recto_2 west_recto_3" />
    </vehicle>
    <vehicle id="a7200_31" depart="9525.00" type="bicycle_tricycle">
        <route edges="west_luna_0 west_luna_1 south_roa_1 west_recto_2 west_recto_3" />
    </vehicle>
    <vehicle id="a7200_32" depart="9600.00" type="bicycle_tricycle">
        <route edges="west_recto_0 west_recto_1 north_roa_0 east_luna_1 south_corrales_1 east_recto_2" />
    </vehicle>
    <vehicle id="a7200_33" depart="9675.00" type="bicycle_tricycle">
        <route edges="west_luna_0 west_luna_1 south_roa_1 west_recto_2 south_osmena_3" />
    </vehicle>
    <vehicle id="a7200_34" depart="9750.00" type="bicycle_tricycle">
        <route edges="south_roa_0 south_roa_1 west_recto_2 west_recto_3" />
    </vehicle>
    <vehicle id="a7200_35" depart="9825.00" type="bicycle_tricycle">
        <route edges="east_recto_0 east_recto_1 east_recto_2" />
    </vehicle>
    <vehicle id="a7200_36" depart="9900.00" type="bicycle_tricycle">
        <route edges="south_corrales_0 west_luna_1 west_luna_2 north_osmena_3" />
    </vehicle>
    <vehicle id="a7200_37" depart="9975.00" type="bicycle_tricycle">
        <route edges="east_florentino_0 north_osmena_2 north_osmena_3" />
    </vehicle>
    <vehicle id="a7200_38" depart="10050.00" type="bicycle_tricycle">
        <route edges="east_recto_0 east_recto_1 south_corrales_2" />
    </vehicle>
    <vehicle id="a7200_39" depart="10125.00" type="bicycle_tricycle">
        <route edges="west_luna_0 west_luna_1 west_luna_2 north_osmena_3" />
    </vehicle>
    <vehicle id="a7200_40" depart="10200.00" type="bicycle_tricycle">
        <route edges="south_corrales_0 west_luna_1 west_luna_2 north_osmena_3" />
    </vehicle>
    <vehicle id="a7200_41" depart="10275.00" type="bicycle_tricycle">
        <route edges="east_florentino_0 north_osmena_2 east_luna_0 north_roa_1" />
    </vehicle>
    <vehicle id="a7200_42" depart="10350.00" type="bicycle_tricycle">
        <route edges="east_recto_0 east_recto_1 south_corrales_2" />
    </vehicle>
    <vehicle id="a7200_43" depart="10425.00" type="bicycle_tricycle">
        <route edges="north_osmena_0 east_recto_1 east_recto_2" />
    </vehicle>
    <vehicle id="a7200_44" depart="10500.00" type="bicycle_tricycle">
        <route edges="south_osmena_0 south_osmena_1 west_florentino_0" />
    </vehicle>
    <vehicle id="a7200_45" depart="10575.00" type="bicycle_tricycle">
        <route edges="south_roa_0 south_roa_1 west_recto_2 west_recto_3" />
    </vehicle>
    <vehicle id="a7200_46" depart="10650.00" type="bicycle_tricycle">
        <route edges="west_recto_0 west_recto_1 west_recto_2 west_recto_3" />
    </vehicle>
    <vehicle id="a7200_47" depart="10725.00" type="bicycle_tricycle">
        <route edges="east_florentino_0 south_osmena_2 east_recto_1 east_recto_2" />
    </vehicle>

    <vehicle id="a10800_0" depart="10800.00" type="bicycle_tricycle">
        <route edges="east_recto_0 east_recto_1 east_recto_2" />
    </vehicle>
    <vehicle id="a10800_1" depart="10885.71" type="bicycle_tricycle">
        <route edges="south_roa_0 south_roa_1 west_recto_2 north_osmena_1 north_osmena_2 east_luna_0 north_roa_1" />
    </vehicle>
    <vehicle id="a10800_2" depart="10971.43" type="bicycle_tricycle">
        <route edges="south_osmena_0 south_osmena_1 west_florentino_0" />
    </vehicle>
    <vehicle id="a10800_3" depart="11057.14" type="bicycle_tricycle">
        <route edges="south_corrales_0 west_luna_1 west_luna_2 south_osmena_1 west_florentino_0" />
    </vehicle>
    <vehicle id="a10800_4" depart="11142.86" type="bicycle_tricycle">
        <route edges="east_recto_0 east_recto_1 south_corrales_2" />
    </vehicle>
    <vehicle id="a10800_5" depart="11228.57" type="bicycle_tricycle">
        <route edges="east_recto_0 east_recto_1 south_corrales_2" />
    </vehicle>
    <vehicle id="a10800_6" depart="11314.29" type="bicycle_tricycle">
        <route edges="east_florentino_0 north_osmena_2 east_luna_0 east_luna_1 east_luna_2" />
    </vehicle>
    <vehicle id="a10800_7" depart="11400.00" type="bicycle_tricycle">
        <route edges="east_recto_0 east_recto_1 north_corrales_1 east_luna_2" />
    </vehicle>
    <vehicle id="a10800_8" depart="11485.71" type="bicycle_tricycle">
        <route edges="south_roa_0 east_luna_1 south_corrales_1 south_corrales_2" />
    </vehicle>
    <vehicle id="a10800_9" depart="11571.43" type="bicycle_tricycle">
        <route edges="east_recto_0 east_recto_1 east_recto_2" />
    </vehicle>
    <vehicle id="a10800_10" depart="11657.14" type="bicycle_tricycle">
        <route edges="south_osmena_0 east_luna_0 east_luna_1 east_luna_2" />
    </vehicle>
    <vehicle id="a10800_11" depart="11742.86" type="bicycle_tricycle">
        <route edges="north_osmena_0 north_osmena_1 north_osmena_2 east_luna_0 north_roa_1" />
    </vehicle>
    <vehicle id="a10800_12" depart="11828.57" type="bicycle_tricycle">
        <route edges="north_osmena_0 west_recto_3" />
    </vehicle>
    <vehicle id="a10800_13" depart="11914.29" type="bicycle_tricycle">
        <route edges="east_florentino_0 south_osmena_2 west_recto_3" />
    </vehicle>
    <vehicle id="a10800_14" depart="12000.00" type="bicycle_tricycle">
        <route edges="south_osmena_0 east_luna_0 east_luna_1 east_luna_2" />
    </vehicle>
    <vehicle id="a10800_15" depart="12085.71" type="bicycle_tricycle">
        <route edges="east_florentino_0 north_osmena_2 east_luna_0 east_luna_1 east_luna_2" />
    </vehicle>
    <vehicle id="a10800_16" depart="12171.43" type="bicycle_tricycle">
        <route edges="west_recto_0 west_recto_1 west_recto_2 south_osmena_3" />
    </vehicle>
    <vehicle id="a10800_17" depart="12257.14" type="bicycle_tricycle">
        <route edges="west_recto_0 west_recto_1 west_recto_2 west_recto_3" />
    </vehicle>
    <vehicle id="a10800_18" depart="12342.86" type="bicycle_tricycle">
        <route edges="east_florentino_0 north_osmena_2 north_osmena_3" />
    </vehicle>
    <vehicle id="a10800_19" depart="12428.57" type="bicycle_tricycle">
        <route edges="east_recto_0 south_osmena_3" />
    </vehicle>
    <vehicle id="a10800_20" depart="12514.29" type="bicycle_tricycle">
        <route edges="west_recto_0 west_recto_1 west_recto_2 west_recto_3" />
    </vehicle>
    <vehicle id="a10800_21" depart="12600.00" type="bicycle_tricycle">
        <route edges="west_recto_0 north_corrales_1 north_corrales_2" />
    </vehicle>
    <vehicle id="a10800_22" depart="12685.71" type="bicycle_tricycle">
        <route edges="west_recto_0 west_recto_1 west_recto_2 west_recto_3" />
    </vehicle>
    <vehicle id="a10800_23" depart="12771.43" type="bicycle_tricycle">
        <route edges="south_corrales_0 south_corrales_1 south_corrales_2" />
    </vehicle>
    <vehicle id="a10800_24" depart="12857.14" type="bicycle_tricycle">
        <route edges="south_osmena_0 east_luna_0 east_luna_1 east_luna_2" />
    </vehicle>
    <vehicle id="a10800_25" depart="12942.86" type="bicycle_tricycle">
        <route edges="north_corrales_0 west_recto_1 west_recto_2 west_recto_3" />
    </vehicle>
    <vehicle id="a10800_26" depart="13028.57" type="bicycle_tricycle">
        <route edges="north_osmena_0 east_recto_1 east_recto_2" />
    </vehicle>
    <vehicle id="a10800_27" depart="13114.29" type="bicycle_tricycle">
        <route edges="south_corrales_0 west_luna_1 west_luna_2 north_osmena_3" />
    </vehicle>
    <vehicle id="a10800_28" depart="13200.00" type="bicycle_tricycle">
        <route edges="west_recto_0 west_recto_1 west_recto_2 south_osmena_3" />
    </vehicle>
    <vehicle id="a10800_29" depart="13285.71" type="bicycle_tricycle">
        <route edges="west_recto_0 west_recto_1 north_roa_0 east_luna_1 south_corrales_1 east_recto_2" />
    </vehicle>
    <vehicle id="a10800_30" depart="13371.43" type="bicycle_tricycle">
        <route edges="east_recto_0 north_osmena_1 west_florentino_0" />
    </vehicle>
    <vehicle id="a10800_31" depart="13457.14" type="bicycle_tricycle">
        <route edges="west_luna_0 west_luna_1 north_roa_1 south_roa_0 east_luna_1 east_luna_2" />
    </vehicle>
    <vehicle id="a10800_32" depart="13542.86" type="bicycle_tricycle">
        <route edges="north_corrales_0 west_recto_1 north_roa_0 north_roa_1" />
    </vehicle>
    <vehicle id="a10800_33" depart="13628.57" type="bicycle_tricycle">
        <route edges="east_florentino_0 north_osmena_2 north_osmena_3" />
    </vehicle>
    <vehicle id="a10800_34" depart="13714.29" type="bicycle_tricycle">
        <route edges="south_corrales_0 west_luna_1 north_roa_1" />
    </vehicle>
    <vehicle id="a10800_35" depart="13800.00" type="bicycle_tricycle">
        <route edges="west_recto_0 west_recto_1 west_recto_2 west_recto_3" />
    </vehicle>
    <vehicle id="a10800_36" depart="13885.71" type="bicycle_tricycle">
        <route edges="south_osmena_0 east_luna_0 east_luna_1 east_luna_2" />
    </vehicle>
    <vehicle id="a10800_37" depart="13971.43" type="bicycle_tricycle">
        <route edges="north_corrales_0 west_recto_1 west_recto_2 west_recto_3" />
    </vehicle>
    <vehicle id="a10800_38" depart="14057.14" type="bicycle_tricycle">
        <route edges="east_florentino_0 north_osmena_2 east_luna_0 north_roa_1" />
    </vehicle>
    <vehicle id="a10800_39" depart="14142.86" type="bicycle_tricycle">
        <route edges="south_roa_0 east_luna_1 south_corrales_1 east_recto_2" />
    </vehicle>
    <vehicle id="a10800_40" depart="14228.57" type="bicycle_tricycle">
        <route edges="east_recto_0 east_recto_1 east_recto_2" />
    </vehicle>
    <vehicle id="a10800_41" depart="14314.29" type="bicycle_tricycle">
        <route edges="east_florentino_0 north_osmena_2 east_luna_0 east_luna_1 east_luna_2" />
    </vehicle>

    <vehicle id="a14400_0" depart="14400.00" type="bicycle_tricycle">
        <route edges="east_florentino_0 south_osmena_2 east_recto_1 north_corrales_1 north_corrales_2" />
    </vehicle>
    <vehicle id="a14400_1" depart="14494.74" type="bicycle_tricycle">
        <route edges="west_recto_0 west_recto_1 west_recto_2 south_osmena_3" />
    </vehicle>
    <vehicle id="a14400_2" depart="14589.47" type="bicycle_tricycle">
        <route edges="west_luna_0 west_luna_1 south_roa_1 west_recto_2 south_osmena_3" />
    </vehicle>
    <vehicle id="a14400_3" depart="14684.21" type="bicycle_tricycle">
        <route edges="east_recto_0 east_recto_1 north_corrales_1 north_corrales_2" />
    </vehicle>
    <vehicle id="a14400_4" depart="14778.95" type="bicycle_tricycle">
        <route edges="west_recto_0 west_recto_1 north_roa_0 east_luna_1 south_corrales_1 east_recto_2" />
    </vehicle>
    <vehicle id="a14400_5" depart="14873.68" type="bicycle_tricycle">
        <route edges="south_osmena_0 east_luna_0 north_roa_1 south_roa_0 west_luna_2 north_osmena_3" />
    </vehicle>
    <vehicle id="a14400_6" depart="14968.42" type="bicycle_tricycle">
        <route edges="east_florentino_0 north_osmena_2 east_luna_0 east_luna_1 east_luna_2" />
    </vehicle>
    <vehicle id="a14400_7" depart="15063.16" type="bicycle_tricycle">
        <route edges="south_osmena_0 east_luna_0 east_luna_1 east_luna_2" />
    </vehicle>
    <vehicle id="a14400_8" depart="15157.89" type="bicycle_tricycle">
        <route edges="north_corrales_0 west_recto_1 west_recto_2 west_recto_3" />
    </vehicle>
    <vehicle id="a14400_9" depart="15252.63" type="bicycle_tricycle">
        <route edges="south_osmena_0 east_luna_0 east_luna_1 east_luna_2" />
    </vehicle>
    <vehicle id="a14400_10" depart="15347.37" type="bicycle_tricycle">
        <route edges="east_florentino_0 south_osmena_2 west_recto_3" />
    </vehicle>
    <vehicle id="a14400_11" depart="15442.11" type="bicycle_tricycle">
        <route edges="south_osmena_0 south_osmena_1 west_florentino_0" />
    </vehicle>
    <vehicle id="a14400_12" depart="15536.84" type="bicycle_tricycle">
        <route edges="north_corrales_0 west_recto_1 west_recto_2 west_recto_3" />
    </vehicle>
    <vehicle id="a14400_13" depart="15631.58" type="bicycle_tricycle">
        <route edges="west_recto_0 west_recto_1 west_recto_2 north_osmena_1 north_osmena_2 north_osmena_3" />
    </vehicle>
    <vehicle id="a14400_14" depart="15726.32" type="bicycle_tricycle">
        <route edges="east_recto_0 south_osmena_3" />
    </vehicle>
    <vehicle id="a14400_15" depart="15821.05" type="bicycle_tricycle">
        <route edges="east_recto_0 north_osmena_1 north_osmena_2 east_luna_0 north_roa_1" />
    </vehicle>
    <vehicle id="a14400_16" depart="15915.79" type="bicycle_tricycle">
        <route edges="north_corrales_0 west_recto_1 west_recto_2 north_osmena_1 west_florentino_0" />
    </vehicle>
    <vehicle id="a14400_17" depart="16010.53" type="bicycle_tricycle">
        <route edges="north_osmena_0 west_recto_3" />
    </vehicle>