<routes xmlns:xsi="http://www.w3.org/2001/XMLSchema-instance" xsi:noNamespaceSchemaLocation="http://sumo.dlr.de/xsd/routes_file.xsd">
<vType id="buses" accel="0.4" decel="2.0" sigma="0.5" length="15.0" minGap="2.5" maxSpeed="30.0" guiShape="bus" color="0,0,255" />
    <vehicle id="10_0" depart="0.00" type="buses">
        <route edges="west_recto_0 west_recto_1 north_roa_0 north_roa_1" />
    </vehicle>
    <vehicle id="10_1" depart="48.00" type="buses">
        <route edges="west_luna_0 west_luna_1 south_roa_1 west_recto_2 south_osmena_3" />
    </vehicle>
    <vehicle id="10_2" depart="96.00" type="buses">
        <route edges="west_recto_0 west_recto_1 north_roa_0 north_roa_1" />
    </vehicle>
    <vehicle id="10_3" depart="144.00" type="buses">
        <route edges="south_roa_0 west_luna_2 south_osmena_1 south_osmena_2 east_recto_1 north_roa_0 north_roa_1" />
    </vehicle>
    <vehicle id="10_4" depart="192.00" type="buses">
        <route edges="west_luna_0 west_luna_1 south_roa_1 east_recto_2 north_corrales_1 east_luna_2" />
    </vehicle>
    <vehicle id="10_5" depart="240.00" type="buses">
        <route edges="west_recto_0 west_recto_1 west_recto_2 west_recto_3" />
    </vehicle>
    <vehicle id="10_6" depart="288.00" type="buses">
        <route edges="west_luna_0 west_luna_1 south_roa_1 east_recto_2 east_recto_3" />
    </vehicle>
    <vehicle id="10_7" depart="336.00" type="buses">
        <route edges="south_corrales_0 south_corrales_1 south_corrales_2" />
    </vehicle>
    <vehicle id="10_8" depart="384.00" type="buses">
        <route edges="north_corrales_0 north_corrales_1 east_luna_2" />
    </vehicle>
    <vehicle id="10_9" depart="432.00" type="buses">
        <route edges="west_recto_0 west_recto_1 north_roa_0 north_roa_1" />
    </vehicle>
    <vehicle id="10_10" depart="480.00" type="buses">
        <route edges="west_recto_0 west_recto_1 north_roa_0 north_roa_1" />
    </vehicle>
    <vehicle id="10_11" depart="528.00" type="buses">
        <route edges="west_recto_0 west_recto_1 north_roa_0 north_roa_1" />
    </vehicle>
    <vehicle id="10_12" depart="576.00" type="buses">
        <route edges="north_corrales_0 north_corrales_1 north_corrales_2" />
    </vehicle>
    <vehicle id="10_13" depart="624.00" type="buses">
        <route edges="west_recto_0 west_recto_1 north_roa_0 north_roa_1" />
    </vehicle>
    <vehicle id="10_14" depart="672.00" type="buses">
        <route edges="south_roa_0 south_roa_1 east_recto_2 east_recto_3" />
    </vehicle>
    <vehicle id="10_15" depart="720.00" type="buses">
        <route edges="north_corrales_0 east_recto_3" />
    </vehicle>
    <vehicle id="10_16" depart="768.00" type="buses">
        <route edges="west_luna_0 west_luna_1 south_roa_1 east_recto_2 east_recto_3" />
    </vehicle>
    <vehicle id="10_17" depart="816.00" type="buses">
        <route edges="west_recto_0 west_recto_1 north_roa_0 north_roa_1" />
    </vehicle>
    <vehicle id="10_18" depart="864.00" type="buses">
        <route edges="west_luna_0 west_luna_1 south_roa_1 east_recto_2 east_recto_3" />
    </vehicle>
    <vehicle id="10_19" depart="912.00" type="buses">
        <route edges="east_recto_0 east_recto_1 north_roa_0 north_roa_1" />
    </vehicle>
    <vehicle id="10_20" depart="960.00" type="buses">
        <route edges="west_luna_0 west_luna_1 south_roa_1 east_recto_2 east_recto_3" />
    </vehicle>
    <vehicle id="10_21" depart="1008.00" type="buses">
        <route edges="east_recto_0 north_osmena_1 north_osmena_2 south_osmena_1 south_osmena_2 west_recto_3" />
    </vehicle>
    <vehicle id="10_22" depart="1056.00" type="buses">
        <route edges="north_osmena_0 north_osmena_1 north_osmena_2 south_osmena_1 south_osmena_2 south_osmena_3" />
    </vehicle>
    <vehicle id="10_23" depart="1104.00" type="buses">
        <route edges="north_osmena_0 north_osmena_1 west_florentino_0" />
    </vehicle>
    <vehicle id="10_24" depart="1152.00" type="buses">
        <route edges="south_roa_0 south_roa_1 east_recto_2 east_recto_3" />
    </vehicle>
    <vehicle id="10_25" depart="1200.00" type="buses">
        <route edges="west_recto_0 north_corrales_1 north_corrales_2" />
    </vehicle>
    <vehicle id="10_26" depart="1248.00" type="buses">
        <route edges="south_roa_0 south_roa_1 east_recto_2 east_recto_3" />
    </vehicle>
    <vehicle id="10_27" depart="1296.00" type="buses">
        <route edges="south_roa_0 south_roa_1 east_recto_2 east_recto_3" />
    </vehicle>
    <vehicle id="10_28" depart="1344.00" type="buses">
        <route edges="east_florentino_0 north_osmena_2 north_osmena_3" />
    </vehicle>
    <vehicle id="10_29" depart="1392.00" type="buses">
        <route edges="north_osmena_0 north_osmena_1 north_osmena_2 south_osmena_1 south_osmena_2 south_osmena_3" />
    </vehicle>
    <vehicle id="10_30" depart="1440.00" type="buses">
        <route edges="west_recto_0 west_recto_1 west_recto_2 west_recto_3" />
    </vehicle>
    <vehicle id="10_31" depart="1488.00" type="buses">
        <route edges="south_corrales_0 west_luna_1 south_roa_1 east_recto_2 north_corrales_1 north_corrales_2" />
    </vehicle>
    <vehicle id="10_32" depart="1536.00" type="buses">
        <route edges="west_recto_0 west_recto_1 north_roa_0 north_roa_1" />
    </vehicle>
    <vehicle id="10_33" depart="1584.00" type="buses">
        <route edges="west_recto_0 west_recto_1 north_roa_0 north_roa_1" />
    </vehicle>
    <vehicle id="10_34" depart="1632.00" type="buses">
        <route edges="west_recto_0 south_corrales_2" />
    </vehicle>
    <vehicle id="10_35" depart="1680.00" type="buses">
        <route edges="south_osmena_0 south_osmena_1 south_osmena_2 south_osmena_3" />
    </vehicle>
    <vehicle id="10_36" depart="1728.00" type="buses">
        <route edges="west_recto_0 west_recto_1 north_roa_0 north_roa_1" />
    </vehicle>
    <vehicle id="10_37" depart="1776.00" type="buses">
        <route edges="south_corrales_0 south_corrales_1 south_corrales_2" />
    </vehicle>
    <vehicle id="10_38" depart="1824.00" type="buses">
        <route edges="east_florentino_0 south_osmena_2 south_osmena_3" />
    </vehicle>
    <vehicle id="10_39" depart="1872.00" type="buses">
        <route edges="west_recto_0 west_recto_1 north_roa_0 north_roa_1" />
    </vehicle>
    <vehicle id="10_40" depart="1920.00" type="buses">
        <route edges="north_corrales_0 north_corrales_1 east_luna_2" />
    </vehicle>
    <vehicle id="10_41" depart="1968.00" type="buses">
        <route edges="east_florentino_0 north_osmena_2 east_luna_0 east_luna_1 east_luna_2" />
    </vehicle>
    <vehicle id="10_42" depart="2016.00" type="buses">
        <route edges="south_corrales_0 south_corrales_1 south_corrales_2" />
    </vehicle>
    <vehicle id="10_43" depart="2064.00" type="buses">
        <route edges="west_recto_0 west_recto_1 north_roa_0 north_roa_1" />
    </vehicle>
    <vehicle id="10_44" depart="2112.00" type="buses">
        <route edges="west_recto_0 south_corrales_2" />
    </vehicle>
    <vehicle id="10_45" depart="2160.00" type="buses">
        <route edges="west_luna_0 west_luna_1 south_roa_1 east_recto_2 east_recto_3" />
    </vehicle>
    <vehicle id="10_46" depart="2208.00" type="buses">
        <route edges="south_corrales_0 south_corrales_1 east_recto_3" />
    </vehicle>
    <vehicle id="10_47" depart="2256.00" type="buses">
        <route edges="south_roa_0 south_roa_1 east_recto_2 east_recto_3" />
    </vehicle>
    <vehicle id="10_48" depart="2304.00" type="buses">
        <route edges="west_luna_0 west_luna_1 south_roa_1 east_recto_2 east_recto_3" />
    </vehicle>
    <vehicle id="10_49" depart="2352.00" type="buses">
        <route edges="west_luna_0 west_luna_1 west_luna_2 south_osmena_1 west_florentino_0" />
    </vehicle>
    <vehicle id="10_50" depart="2400.00" type="buses">
        <route edges="west_luna_0 west_luna_1 south_roa_1 east_recto_2 south_corrales_2" />
    </vehicle>
    <vehicle id="10_51" depart="2448.00" type="buses">
        <route edges="west_recto_0 west_recto_1 north_roa_0 north_roa_1" />
    </vehicle>
    <vehicle id="10_52" depart="2496.00" type="buses">
        <route edges="north_corrales_0 north_corrales_1 east_luna_2" />
    </vehicle>
    <vehicle id="10_53" depart="2544.00" type="buses">
        <route edges="west_recto_0 west_recto_1 north_roa_0 north_roa_1" />
    </vehicle>
    <vehicle id="10_54" depart="2592.00" type="buses">
        <route edges="south_osmena_0 south_osmena_1 south_osmena_2 east_recto_1 east_recto_2 east_recto_3" />
    </vehicle>
    <vehicle id="10_55" depart="2640.00" type="buses">
        <route edges="west_recto_0 west_recto_1 north_roa_0 north_roa_1" />
    </vehicle>
    <vehicle id="10_56" depart="2688.00" type="buses">
        <route edges="east_recto_0 north_osmena_1 north_osmena_2 north_osmena_3" />
    </vehicle>
    <vehicle id="10_57" depart="2736.00" type="buses">
        <route edges="south_corrales_0 south_corrales_1 east_recto_3" />
    </vehicle>
    <vehicle id="10_58" depart="2784.00" type="buses">
        <route edges="west_recto_0 west_recto_1 north_roa_0 north_roa_1" />
    </vehicle>
    <vehicle id="10_59" depart="2832.00" type="buses">
        <route edges="west_recto_0 west_recto_1 north_roa_0 north_roa_1" />
    </vehicle>
    <vehicle id="10_60" depart="2880.00" type="buses">
        <route edges="south_roa_0 south_roa_1 east_recto_2 east_recto_3" />
    </vehicle>
    <vehicle id="10_61" depart="2928.00" type="buses">
        <route edges="south_corrales_0 south_corrales_1 south_corrales_2" />
    </vehicle>
    <vehicle id="10_62" depart="2976.00" type="buses">
        <route edges="west_recto_0 west_recto_1 west_recto_2 west_recto_3" />
    </vehicle>
    <vehicle id="10_63" depart="3024.00" type="buses">
        <route edges="west_recto_0 west_recto_1 north_roa_0 north_roa_1" />
    </vehicle>
    <vehicle id="10_64" depart="3072.00" type="buses">
        <route edges="west_recto_0 west_recto_1 north_roa_0 north_roa_1" />
    </vehicle>
    <vehicle id="10_65" depart="3120.00" type="buses">
        <route edges="east_florentino_0 north_osmena_2 north_osmena_3" />
    </vehicle>
    <vehicle id="10_66" depart="3168.00" type="buses">
        <route edges="west_luna_0 west_luna_1 south_roa_1 east_recto_2 east_recto_3" />
    </vehicle>
    <vehicle id="10_67" depart="3216.00" type="buses">
        <route edges="south_osmena_0 east_luna_0 east_luna_1 east_luna_2" />
    </vehicle>
    <vehicle id="10_68" depart="3264.00" type="buses">
        <route edges="north_corrales_0 west_recto_1 west_recto_2 north_osmena_1 north_osmena_2 north_osmena_3" />
    </vehicle>
    <vehicle id="10_69" depart="3312.00" type="buses">
        <route edges="east_recto_0 east_recto_1 north_roa_0 north_roa_1" />
    </vehicle>
    <vehicle id="10_70" depart="3360.00" type="buses">
        <route edges="south_roa_0 south_roa_1 east_recto_2 east_recto_3" />
    </vehicle>
    <vehicle id="10_71" depart="3408.00" type="buses">
        <route edges="east_florentino_0 north_osmena_2 north_osmena_3" />
    </vehicle>
    <vehicle id="10_72" depart="3456.00" type="buses">
        <route edges="west_recto_0 north_corrales_1 east_luna_2" />
    </vehicle>
    <vehicle id="10_73" depart="3504.00" type="buses">
        <route edges="north_corrales_0 north_corrales_1 north_corrales_2" />
    </vehicle>
    <vehicle id="10_74" depart="3552.00" type="buses">
        <route edges="west_luna_0 west_luna_1 south_roa_1 east_recto_2 east_recto_3" />
    </vehicle>

    <vehicle id="13600_0" depart="3600.00" type="buses">
        <route edges="west_luna_0 west_luna_1 south_roa_1 east_recto_2 east_recto_3" />
    </vehicle>
    <vehicle id="13600_1" depart="3629.51" type="buses">
        <route edges="south_roa_0 south_roa_1 east_recto_2 east_recto_3" />
    </vehicle>
    <vehicle id="13600_2" depart="3659.02" type="buses">
        <route edges="north_corrales_0 north_corrales_1 north_corrales_2" />
    </vehicle>
    <vehicle id="13600_3" depart="3688.52" type="buses">
        <route edges="south_roa_0 south_roa_1 east_recto_2 east_recto_3" />
    </vehicle>
    <vehicle id="13600_4" depart="3718.03" type="buses">
        <route edges="west_recto_0 west_recto_1 north_roa_0 north_roa_1" />
    </vehicle>
    <vehicle id="13600_5" depart="3747.54" type="buses">
        <route edges="east_florentino_0 north_osmena_2 north_osmena_3" />
    </vehicle>
    <vehicle id="13600_6" depart="3777.05" type="buses">
        <route edges="south_corrales_0 west_luna_1 west_luna_2 north_osmena_3" />
    </vehicle>
    <vehicle id="13600_7" depart="3806.56" type="buses">
        <route edges="south_corrales_0 south_corrales_1 south_corrales_2" />
    </vehicle>
    <vehicle id="13600_8" depart="3836.07" type="buses">
        <route edges="east_recto_0 north_osmena_1 west_florentino_0" />
    </vehicle>
    <vehicle id="13600_9" depart="3865.57" type="buses">
        <route edges="west_recto_0 west_recto_1 north_roa_0 north_roa_1" />
    </vehicle>
    <vehicle id="13600_10" depart="3895.08" type="buses">
        <route edges="west_recto_0 west_recto_1 north_roa_0 north_roa_1" />
    </vehicle>
    <vehicle id="13600_11" depart="3924.59" type="buses">
        <route edges="north_corrales_0 north_corrales_1 east_luna_2" />
    </vehicle>
    <vehicle id="13600_12" depart="3954.10" type="buses">
        <route edges="west_recto_0 north_corrales_1 north_corrales_2" />
    </vehicle>
    <vehicle id="13600_13" depart="3983.61" type="buses">
        <route edges="west_recto_0 west_recto_1 north_roa_0 north_roa_1" />
    </vehicle>
    <vehicle id="13600_14" depart="4013.11" type="buses">
        <route edges="west_luna_0 west_luna_1 south_roa_1 east_recto_2 south_corrales_2" />
    </vehicle>
    <vehicle id="13600_15" depart="4042.62" type="buses">
        <route edges="west_luna_0 west_luna_1 south_roa_1 east_recto_2 east_recto_3" />
    </vehicle>
    <vehicle id="13600_16" depart="4072.13" type="buses">
        <route edges="south_corrales_0 south_corrales_1 south_corrales_2" />
    </vehicle>
    <vehicle id="13600_17" depart="4101.64" type="buses">
        <route edges="west_recto_0 west_recto_1 north_roa_0 north_roa_1" />
    </vehicle>
    <vehicle id="13600_18" depart="4131.15" type="buses">
        <route edges="south_roa_0 south_roa_1 east_recto_2 east_recto_3" />
    </vehicle>
    <vehicle id="13600_19" depart="4160.66" type="buses">
        <route edges="west_recto_0 west_recto_1 north_roa_0 north_roa_1" />
    </vehicle>
    <vehicle id="13600_20" depart="4190.16" type="buses">
        <route edges="west_luna_0 west_luna_1 south_roa_1 east_recto_2 north_corrales_1 east_luna_2" />
    </vehicle>
    <vehicle id="13600_21" depart="4219.67" type="buses">
        <route edges="west_recto_0 west_recto_1 north_roa_0 north_roa_1" />
    </vehicle>
    <vehicle id="13600_22" depart="4249.18" type="buses">
        <route edges="north_corrales_0 north_corrales_1 east_luna_2" />
    </vehicle>
    <vehicle id="13600_23" depart="4278.69" type="buses">
        <route edges="east_recto_0 north_osmena_1 west_florentino_0" />
    </vehicle>
    <vehicle id="13600_24" depart="4308.20" type="buses">
        <route edges="west_recto_0 north_corrales_1 north_corrales_2" />
    </vehicle>
    <vehicle id="13600_25" depart="4337.70" type="buses">
        <route edges="west_recto_0 west_recto_1 north_roa_0 north_roa_1" />
    </vehicle>
    <vehicle id="13600_26" depart="4367.21" type="buses">
        <route edges="east_florentino_0 north_osmena_2 east_luna_0 east_luna_1 east_luna_2" />
    </vehicle>
    <vehicle id="13600_27" depart="4396.72" type="buses">
        <route edges="west_recto_0 north_corrales_1 east_luna_2" />
    </vehicle>
    <vehicle id="13600_28" depart="4426.23" type="buses">
        <route edges="south_corrales_0 south_corrales_1 south_corrales_2" />
    </vehicle>
    <vehicle id="13600_29" depart="4455.74" type="buses">
        <route edges="west_recto_0 west_recto_1 north_roa_0 north_roa_1" />
    </vehicle>
    <vehicle id="13600_30" depart="4485.25" type="buses">
        <route edges="west_recto_0 west_recto_1 north_roa_0 north_roa_1" />
    </vehicle>
    <vehicle id="13600_31" depart="4514.75" type="buses">
        <route edges="west_luna_0 west_luna_1 south_roa_1 east_recto_2 east_recto_3" />
    </vehicle>
    <vehicle id="13600_32" depart="4544.26" type="buses">
        <route edges="west_recto_0 north_corrales_1 north_corrales_2" />
    </vehicle>
    <vehicle id="13600_33" depart="4573.77" type="buses">
        <route edges="west_recto_0 west_recto_1 north_roa_0 north_roa_1" />
    </vehicle>
    <vehicle id="13600_34" depart="4603.28" type="buses">
        <route edges="north_corrales_0 west_recto_1 west_recto_2 north_osmena_1 north_osmena_2 south_osmena_1 south_osmena_2 east_recto_1 east_recto_2 south_corrales_2" />
    </vehicle>
    <vehicle id="13600_35" depart="4632.79" type="buses">
        <route edges="north_corrales_0 north_corrales_1 east_luna_2" />
    </vehicle>
    <vehicle id="13600_36" depart="4662.30" type="buses">
        <route edges="south_corrales_0 south_corrales_1 south_corrales_2" />
    </vehicle>
    <vehicle id="13600_37" depart="4691.80" type="buses">
        <route edges="west_luna_0 west_luna_1 south_roa_1 east_recto_2 east_recto_3" />
    </vehicle>
    <vehicle id="13600_38" depart="4721.31" type="buses">
        <route edges="west_recto_0 west_recto_1 north_roa_0 north_roa_1" />
    </vehicle>
    <vehicle id="13600_39" depart="4750.82" type="buses">
        <route edges="south_roa_0 south_roa_1 east_recto_2 east_recto_3" />
    </vehicle>
    <vehicle id="13600_40" depart="4780.33" type="buses">
        <route edges="west_luna_0 west_luna_1 south_roa_1 east_recto_2 east_recto_3" />
    </vehicle>
    <vehicle id="13600_41" depart="4809.84" type="buses">
        <route edges="south_roa_0 south_roa_1 east_recto_2 east_recto_3" />
    </vehicle>
    <vehicle id="13600_42" depart="4839.34" type="buses">
        <route edges="east_florentino_0 north_osmena_2 east_luna_0 east_luna_1 east_luna_2" />
    </vehicle>
    <vehicle id="13600_43" depart="4868.85" type="buses">
        <route edges="west_recto_0 west_recto_1 north_roa_0 north_roa_1" />
    </vehicle>
    <vehicle id="13600_44" depart="4898.36" type="buses">
        <route edges="north_corrales_0 north_corrales_1 north_corrales_2" />
    </vehicle>
    <vehicle id="13600_45" depart="4927.87" type="buses">
        <route edges="west_recto_0 west_recto_1 north_roa_0 north_roa_1" />
    </vehicle>
    <vehicle id="13600_46" depart="4957.38" type="buses">
        <route edges="north_corrales_0 north_corrales_1 north_corrales_2" />
    </vehicle>
    <vehicle id="13600_47" depart="4986.89" type="buses">
        <route edges="south_roa_0 south_roa_1 east_recto_2 east_recto_3" />
    </vehicle>
    <vehicle id="13600_48" depart="5016.39" type="buses">
        <route edges="south_corrales_0 south_corrales_1 east_recto_3" />
    </vehicle>
    <vehicle id="13600_49" depart="5045.90" type="buses">
        <route edges="west_recto_0 north_corrales_1 north_corrales_2" />
    </vehicle>
    <vehicle id="13600_50" depart="5075.41" type="buses">
        <route edges="west_recto_0 west_recto_1 north_roa_0 north_roa_1" />
    </vehicle>
    <vehicle id="13600_51" depart="5104.92" type="buses">
        <route edges="west_recto_0 west_recto_1 north_roa_0 north_roa_1" />
    </vehicle>
    <vehicle id="13600_52" depart="5134.43" type="buses">
        <route edges="south_corrales_0 south_corrales_1 west_recto_1 west_recto_2 west_recto_3" />
    </vehicle>
    <vehicle id="13600_53" depart="5163.93" type="buses">
        <route edges="north_osmena_0 east_recto_1 east_recto_2 north_corrales_1 north_corrales_2" />
    </vehicle>
    <vehicle id="13600_54" depart="5193.44" type="buses">
        <route edges="east_recto_0 east_recto_1 east_recto_2 east_recto_3" />
    </vehicle>
    <vehicle id="13600_55" depart="5222.95" type="buses">
        <route edges="west_luna_0 west_luna_1 south_roa_1 east_recto_2 east_recto_3" />
    </vehicle>
    <vehicle id="13600_56" depart="5252.46" type="buses">
        <route edges="south_corrales_0 south_corrales_1 east_recto_3" />
    </vehicle>
    <vehicle id="13600_57" depart="5281.97" type="buses">
        <route edges="west_recto_0 south_corrales_2" />
    </vehicle>
    <vehicle id="13600_58" depart="5311.48" type="buses">
        <route edges="west_recto_0 south_corrales_2" />
    </vehicle>
    <vehicle id="13600_59" depart="5340.98" type="buses">
        <route edges="north_corrales_0 east_recto_3" />
    </vehicle>
    <vehicle id="13600_60" depart="5370.49" type="buses">
        <route edges="west_recto_0 west_recto_1 north_roa_0 north_roa_1" />
    </vehicle>
    <vehicle id="13600_61" depart="5400.00" type="buses">
        <route edges="west_luna_0 west_luna_1 south_roa_1 east_recto_2 east_recto_3" />
    </vehicle>
    <vehicle id="13600_62" depart="5429.51" type="buses">
        <route edges="north_corrales_0 north_corrales_1 north_corrales_2" />
    </vehicle>
    <vehicle id="13600_63" depart="5459.02" type="buses">
        <route edges="west_recto_0 west_recto_1 north_roa_0 north_roa_1" />
    </vehicle>
    <vehicle id="13600_64" depart="5488.52" type="buses">
        <route edges="west_recto_0 west_recto_1 north_roa_0 north_roa_1" />
    </vehicle>
    <vehicle id="13600_65" depart="5518.03" type="buses">
        <route edges="north_osmena_0 north_osmena_1 north_osmena_2 south_osmena_1 south_osmena_2 south_osmena_3" />
    </vehicle>
    <vehicle id="13600_66" depart="5547.54" type="buses">
        <route edges="west_recto_0 west_recto_1 north_roa_0 north_roa_1" />
    </vehicle>
    <vehicle id="13600_67" depart="5577.05" type="buses">
        <route edges="south_roa_0 south_roa_1 east_recto_2 east_recto_3" />
    </vehicle>
    <vehicle id="13600_68" depart="5606.56" type="buses">
        <route edges="east_recto_0 east_recto_1 north_roa_0 north_roa_1" />
    </vehicle>
    <vehicle id="13600_69" depart="5636.07" type="buses">
        <route edges="south_osmena_0 south_osmena_1 west_florentino_0" />
    </vehicle>
    <vehicle id="13600_70" depart="5665.57" type="buses">
        <route edges="south_corrales_0 south_corrales_1 west_recto_1 west_recto_2 west_recto_3" />
    </vehicle>
    <vehicle id="13600_71" depart="5695.08" type="buses">
        <route edges="south_osmena_0 east_luna_0 east_luna_1 east_luna_2" />
    </vehicle>
    <vehicle id="13600_72" depart="5724.59" type="buses">
        <route edges="west_recto_0 west_recto_1 north_roa_0 north_roa_1" />
    </vehicle>
    <vehicle id="13600_73" depart="5754.10" type="buses">
        <route edges="south_roa_0 south_roa_1 east_recto_2 north_corrales_1 north_corrales_2" />
    </vehicle>
    <vehicle id="13600_74" depart="5783.61" type="buses">
        <route edges="south_corrales_0 south_corrales_1 south_corrales_2" />
    </vehicle>
    <vehicle id="13600_75" depart="5813.11" type="buses">
        <route edges="west_recto_0 west_recto_1 north_roa_0 north_roa_1" />
    </vehicle>
    <vehicle id="13600_76" depart="5842.62" type="buses">
        <route edges="south_roa_0 south_roa_1 east_recto_2 east_recto_3" />
    </vehicle>
    <vehicle id="13600_77" depart="5872.13" type="buses">
        <route edges="east_florentino_0 south_osmena_2 west_recto_3" />
    </vehicle>
    <vehicle id="13600_78" depart="5901.64" type="buses">
        <route edges="east_recto_0 north_osmena_1 north_osmena_2 north_osmena_3" />
    </vehicle>
    <vehicle id="13600_79" depart="5931.15" type="buses">
        <route edges="west_recto_0 west_recto_1 north_roa_0 north_roa_1" />
    </vehicle>
    <vehicle id="13600_80" depart="5960.66" type="buses">
        <route edges="east_recto_0 north_osmena_1 north_osmena_2 north_osmena_3" />
    </vehicle>
    <vehicle id="13600_81" depart="5990.16" type="buses">
        <route edges="south_corrales_0 west_luna_1 south_roa_1 east_recto_2 north_corrales_1 east_luna_2" />
    </vehicle>
    <vehicle id="13600_82" depart="6019.67" type="buses">
        <route edges="west_luna_0 west_luna_1 south_roa_1 east_recto_2 east_recto_3" />
    </vehicle>
    <vehicle id="13600_83" depart="6049.18" type="buses">
        <route edges="south_roa_0 south_roa_1 east_recto_2 east_recto_3" />
    </vehicle>
    <vehicle id="13600_84" depart="6078.69" type="buses">
        <route edges="west_recto_0 west_recto_1 north_roa_0 north_roa_1" />
    </vehicle>
    <vehicle id="13600_85" depart="6108.20" type="buses">
        <route edges="south_roa_0 south_roa_1 east_recto_2 east_recto_3" />
    </vehicle>
    <vehicle id="13600_86" depart="6137.70" type="buses">
        <route edges="north_corrales_0 north_corrales_1 north_corrales_2" />
    </vehicle>
    <vehicle id="13600_87" depart="6167.21" type="buses">
        <route edges="west_recto_0 west_recto_1 north_roa_0 north_roa_1" />
    </vehicle>
    <vehicle id="13600_88" depart="6196.72" type="buses">
        <route edges="south_corrales_0 south_corrales_1 east_recto_3" />
    </vehicle>
    <vehicle id="13600_89" depart="6226.23" type="buses">
        <route edges="west_luna_0 west_luna_1 south_roa_1 west_recto_2 west_recto_3" />
    </vehicle>
    <vehicle id="13600_90" depart="6255.74" type="buses">
        <route edges="west_recto_0 west_recto_1 north_roa_0 north_roa_1" />
    </vehicle>
    <vehicle id="13600_91" depart="6285.25" type="buses">
        <route edges="south_osmena_0 south_osmena_1 south_osmena_2 west_recto_3" />
    </vehicle>
    <vehicle id="13600_92" depart="6314.75" type="buses">
        <route edges="west_luna_0 west_luna_1 south_roa_1 east_recto_2 east_recto_3" />
    </vehicle>
    <vehicle id="13600_93" depart="6344.26" type="buses">
        <route edges="east_recto_0 east_recto_1 north_roa_0 north_roa_1" />
    </vehicle>
    <vehicle id="13600_94" depart="6373.77" type="buses">
        <route edges="west_luna_0 west_luna_1 south_roa_1 east_recto_2 east_recto_3" />
    </vehicle>
    <vehicle id="13600_95" depart="6403.28" type="buses">
        <route edges="south_roa_0 south_roa_1 east_recto_2 east_recto_3" />
    </vehicle>
    <vehicle id="13600_96" depart="6432.79" type="buses">
        <route edges="west_recto_0 west_recto_1 north_roa_0 north_roa_1" />
    </vehicle>
    <vehicle id="13600_97" depart="6462.30" type="buses">
        <route edges="west_luna_0 west_luna_1 south_roa_1 east_recto_2 east_recto_3" />
    </vehicle>
    <vehicle id="13600_98" depart="6491.80" type="buses">
        <route edges="west_luna_0 west_luna_1 south_roa_1 east_recto_2 east_recto_3" />
    </vehicle>
    <vehicle id="13600_99" depart="6521.31" type="buses">
        <route edges="west_recto_0 west_recto_1 north_roa_0 north_roa_1" />
    </vehicle>
    <vehicle id="13600_100" depart="6550.82" type="buses">
        <route edges="west_recto_0 west_recto_1 north_roa_0 north_roa_1" />
    </vehicle>
    <vehicle id="13600_101" depart="6580.33" type="buses">
        <route edges="west_luna_0 west_luna_1 south_roa_1 east_recto_2 east_recto_3" />
    </vehicle>
    <vehicle id="13600_102" depart="6609.84" type="buses">
        <route edges="east_recto_0 east_recto_1 north_roa_0 north_roa_1" />
    </vehicle>
    <vehicle id="13600_103" depart="6639.34" type="buses">
        <route edges="south_roa_0 south_roa_1 east_recto_2 south_corrales_2" />
    </vehicle>
    <vehicle id="13600_104" depart="6668.85" type="buses">
        <route edges="south_roa_0 south_roa_1 east_recto_2 east_recto_3" />
    </vehicle>
    <vehicle id="13600_105" depart="6698.36" type="buses">
        <route edges="north_corrales_0 east_recto_3" />
    </vehicle>
    <vehicle id="13600_106" depart="6727.87" type="buses">
        <route edges="west_luna_0 west_luna_1 south_roa_1 east_recto_2 east_recto_3" />
    </vehicle>
    <vehicle id="13600_107" depart="6757.38" type="buses">
        <route edges="south_roa_0 south_roa_1 east_recto_2 east_recto_3" />
    </vehicle>
    <vehicle id="13600_108" depart="6786.89" type="buses">
        <route edges="south_osmena_0 south_osmena_1 south_osmena_2 west_recto_3" />
    </vehicle>
    <vehicle id="13600_109" depart="6816.39" type="buses">
        <route edges="south_roa_0 south_roa_1 east_recto_2 east_recto_3" />
    </vehicle>
    <vehicle id="13600_110" depart="6845.90" type="buses">
        <route edges="south_corrales_0 south_corrales_1 west_recto_1 west_recto_2 west_recto_3" />
    </vehicle>
    <vehicle id="13600_111" depart="6875.41" type="buses">
        <route edges="east_recto_0 north_osmena_1 north_osmena_2 north_osmena_3" />
    </vehicle>
    <vehicle id="13600_112" depart="6904.92" type="buses">
        <route edges="east_florentino_0 north_osmena_2 north_osmena_3" />
    </vehicle>
    <vehicle id="13600_113" depart="6934.43" type="buses">
        <route edges="west_recto_0 west_recto_1 north_roa_0 north_roa_1" />
    </vehicle>
    <vehicle id="13600_114" depart="6963.93" type="buses">
        <route edges="east_recto_0 north_osmena_1 north_osmena_2 north_osmena_3" />
    </vehicle>
    <vehicle id="13600_115" depart="6993.44" type="buses">
        <route edges="west_luna_0 west_luna_1 west_luna_2 south_osmena_1 west_florentino_0" />
    </vehicle>
    <vehicle id="13600_116" depart="7022.95" type="buses">