<routes xmlns:xsi="http://www.w3.org/2001/XMLSchema-instance" xsi:noNamespaceSchemaLocation="http://sumo.dlr.de/xsd/routes_file.xsd">
<vType id="cars_SUV" accel="0.8" decel="4.5" sigma="0.5" length="5.0" minGap="2.5" maxSpeed="30.0" guiShape="passenger" color="0,0,255" />

    <vehicle id="b0_0" depart="0.00" type="cars_SUV">
        <route edges="east_recto_0 south_osmena_3" />
    </vehicle>
    <vehicle id="b0_1" depart="6.34" type="cars_SUV">
        <route edges="west_recto_0 west_recto_1 west_recto_2 west_recto_3" />
    </vehicle>
    <vehicle id="b0_2" depart="12.68" type="cars_SUV">
        <route edges="west_recto_0 south_corrales_2" />
    </vehicle>
    <vehicle id="b0_3" depart="19.01" type="cars_SUV">
        <route edges="south_corrales_0 south_corrales_1 south_corrales_2" />
    </vehicle>
    <vehicle id="b0_4" depart="25.35" type="cars_SUV">
        <route edges="south_corrales_0 south_corrales_1 south_corrales_2" />
    </vehicle>
    <vehicle id="b0_5" depart="31.69" type="cars_SUV">
        <route edges="east_florentino_0 south_osmena_2 south_osmena_3" />
    </vehicle>
    <vehicle id="b0_6" depart="38.03" type="cars_SUV">
        <route edges="south_corrales_0 south_corrales_1 west_recto_1 west_recto_2 south_osmena_3" />
    </vehicle>
    <vehicle id="b0_7" depart="44.37" type="cars_SUV">
        <route edges="south_corrales_0 south_corrales_1 south_corrales_2" />
    </vehicle>
    <vehicle id="b0_8" depart="50.70" type="cars_SUV">
        <route edges="east_recto_0 east_recto_1 east_recto_2" />
    </vehicle>
    <vehicle id="b0_9" depart="57.04" type="cars_SUV">
        <route edges="west_recto_0 west_recto_1 west_recto_2 west_recto_3" />
    </vehicle>
    <vehicle id="b0_10" depart="63.38" type="cars_SUV">
        <route edges="south_corrales_0 south_corrales_1 east_recto_2" />
    </vehicle>
    <vehicle id="b0_11" depart="69.72" type="cars_SUV">
        <route edges="west_recto_0 west_recto_1 west_recto_2 west_recto_3" />
    </vehicle>
    <vehicle id="b0_12" depart="76.06" type="cars_SUV">
        <route edges="west_luna_0 west_luna_1 north_roa_1" />
    </vehicle>
    <vehicle id="b0_13" depart="82.39" type="cars_SUV">
        <route edges="east_florentino_0 south_osmena_2 south_osmena_3" />
    </vehicle>
    <vehicle id="b0_14" depart="88.73" type="cars_SUV">
        <route edges="west_recto_0 west_recto_1 west_recto_2 south_osmena_3" />
    </vehicle>
    <vehicle id="b0_15" depart="95.07" type="cars_SUV">
        <route edges="north_corrales_0 north_corrales_1 north_corrales_2" />
    </vehicle>
    <vehicle id="b0_16" depart="101.41" type="cars_SUV">
        <route edges="south_osmena_0 south_osmena_1 south_osmena_2 west_recto_3" />
    </vehicle>
    <vehicle id="b0_17" depart="107.75" type="cars_SUV">
        <route edges="east_recto_0 east_recto_1 east_recto_2" />
    </vehicle>
    <vehicle id="b0_18" depart="114.08" type="cars_SUV">
        <route edges="south_corrales_0 south_corrales_1 west_recto_1 west_recto_2 south_osmena_3" />
    </vehicle>
    <vehicle id="b0_19" depart="120.42" type="cars_SUV">
        <route edges="east_recto_0 east_recto_1 north_corrales_1 north_corrales_2" />
    </vehicle>
    <vehicle id="b0_20" depart="126.76" type="cars_SUV">
        <route edges="east_recto_0 east_recto_1 east_recto_2" />
    </vehicle>
    <vehicle id="b0_21" depart="133.10" type="cars_SUV">
        <route edges="west_recto_0 north_corrales_1 north_corrales_2" />
    </vehicle>
    <vehicle id="b0_22" depart="139.44" type="cars_SUV">
        <route edges="east_florentino_0 north_osmena_2 north_osmena_3" />
    </vehicle>
    <vehicle id="b0_23" depart="145.77" type="cars_SUV">
        <route edges="east_recto_0 east_recto_1 east_recto_2" />
    </vehicle>
    <vehicle id="b0_24" depart="152.11" type="cars_SUV">
        <route edges="west_recto_0 west_recto_1 west_recto_2 west_recto_3" />
    </vehicle>
    <vehicle id="b0_25" depart="158.45" type="cars_SUV">
        <route edges="west_luna_0 north_corrales_2" />
    </vehicle>
    <vehicle id="b0_26" depart="164.79" type="cars_SUV">
        <route edges="east_florentino_0 north_osmena_2 north_osmena_3" />
    </vehicle>
    <vehicle id="b0_27" depart="171.13" type="cars_SUV">
        <route edges="west_recto_0 north_corrales_1 north_corrales_2" />
    </vehicle>
    <vehicle id="b0_28" depart="177.46" type="cars_SUV">
        <route edges="east_recto_0 east_recto_1 east_recto_2" />
    </vehicle>
    <vehicle id="b0_29" depart="183.80" type="cars_SUV">
        <route edges="east_recto_0 east_recto_1 north_corrales_1 north_corrales_2" />
    </vehicle>
    <vehicle id="b0_30" depart="190.14" type="cars_SUV">
        <route edges="north_corrales_0 west_recto_1 north_roa_0 east_luna_1 south_corrales_1 south_corrales_2" />
    </vehicle>
    <vehicle id="b0_31" depart="196.48" type="cars_SUV">
        <route edges="west_recto_0 north_corrales_1 north_corrales_2" />
    </vehicle>
    <vehicle id="b0_32" depart="202.82" type="cars_SUV">
        <route edges="west_recto_0 north_corrales_1 north_corrales_2" />
    </vehicle>
    <vehicle id="b0_33" depart="209.15" type="cars_SUV">
        <route edges="east_florentino_0 south_osmena_2 east_recto_1 south_corrales_2" />
    </vehicle>
    <vehicle id="b0_34" depart="215.49" type="cars_SUV">
        <route edges="south_corrales_0 south_corrales_1 south_corrales_2" />
    </vehicle>
    <vehicle id="b0_35" depart="221.83" type="cars_SUV">
        <route edges="north_corrales_0 west_recto_1 west_recto_2 north_osmena_1 north_osmena_2 north_osmena_3" />
    </vehicle>
    <vehicle id="b0_36" depart="228.17" type="cars_SUV">
        <route edges="west_recto_0 west_recto_1 west_recto_2 north_osmena_1 west_florentino_0" />
    </vehicle>
    <vehicle id="b0_37" depart="234.51" type="cars_SUV">
        <route edges="east_recto_0 east_recto_1 south_corrales_2" />
    </vehicle>
    <vehicle id="b0_38" depart="240.85" type="cars_SUV">
        <route edges="south_osmena_0 south_osmena_1 west_florentino_0" />
    </vehicle>
    <vehicle id="b0_39" depart="247.18" type="cars_SUV">
        <route edges="east_florentino_0 north_osmena_2 east_luna_0 east_luna_1 east_luna_2" />
    </vehicle>
    <vehicle id="b0_40" depart="253.52" type="cars_SUV">
        <route edges="east_recto_0 east_recto_1 east_recto_2" />
    </vehicle>
    <vehicle id="b0_41" depart="259.86" type="cars_SUV">
        <route edges="south_corrales_0 west_luna_1 north_roa_1 south_roa_0 east_luna_1 east_luna_2" />
    </vehicle>
    <vehicle id="b0_42" depart="266.20" type="cars_SUV">
        <route edges="north_corrales_0 north_corrales_1 north_corrales_2" />
    </vehicle>
    <vehicle id="b0_43" depart="272.54" type="cars_SUV">
        <route edges="west_luna_0 north_corrales_2" />
    </vehicle>
    <vehicle id="b0_44" depart="278.87" type="cars_SUV">
        <route edges="east_recto_0 east_recto_1 east_recto_2" />
    </vehicle>
    <vehicle id="b0_45" depart="285.21" type="cars_SUV">
        <route edges="south_roa_0 east_luna_1 south_corrales_1 south_corrales_2" />
    </vehicle>
    <vehicle id="b0_46" depart="291.55" type="cars_SUV">
        <route edges="north_osmena_0 north_osmena_1 north_osmena_2 north_osmena_3" />
    </vehicle>
    <vehicle id="b0_47" depart="297.89" type="cars_SUV">
        <route edges="south_osmena_0 south_osmena_1 south_osmena_2 west_recto_3" />
    </vehicle>
    <vehicle id="b0_48" depart="304.23" type="cars_SUV">
        <route edges="east_recto_0 south_osmena_3" />
    </vehicle>
    <vehicle id="b0_49" depart="310.56" type="cars_SUV">
        <route edges="east_recto_0 east_recto_1 east_recto_2" />
    </vehicle>
    <vehicle id="b0_50" depart="316.90" type="cars_SUV">
        <route edges="west_luna_0 north_corrales_2" />
    </vehicle>
    <vehicle id="b0_51" depart="323.24" type="cars_SUV">
        <route edges="south_corrales_0 south_corrales_1 west_recto_1 west_recto_2 south_osmena_3" />
    </vehicle>
    <vehicle id="b0_52" depart="329.58" type="cars_SUV">
        <route edges="south_osmena_0 east_luna_0 east_luna_1 east_luna_2" />
    </vehicle>
    <vehicle id="b0_53" depart="335.92" type="cars_SUV">
        <route edges="south_roa_0 east_luna_1 south_corrales_1 south_corrales_2" />
    </vehicle>
    <vehicle id="b0_54" depart="342.25" type="cars_SUV">
        <route edges="south_corrales_0 south_corrales_1 south_corrales_2" />
    </vehicle>
    <vehicle id="b0_55" depart="348.59" type="cars_SUV">
        <route edges="north_osmena_0 north_osmena_1 north_osmena_2 east_luna_0 north_roa_1" />
    </vehicle>
    <vehicle id="b0_56" depart="354.93" type="cars_SUV">
        <route edges="west_luna_0 north_corrales_2" />
    </vehicle>
    <vehicle id="b0_57" depart="361.27" type="cars_SUV">
        <route edges="east_florentino_0 north_osmena_2 north_osmena_3" />
    </vehicle>
    <vehicle id="b0_58" depart="367.61" type="cars_SUV">
        <route edges="west_recto_0 west_recto_1 north_roa_0 north_roa_1" />
    </vehicle>
    <vehicle id="b0_59" depart="373.94" type="cars_SUV">
        <route edges="east_recto_0 east_recto_1 south_corrales_2" />
    </vehicle>
    <vehicle id="b0_60" depart="380.28" type="cars_SUV">
        <route edges="west_luna_0 north_corrales_2" />
    </vehicle>
    <vehicle id="b0_61" depart="386.62" type="cars_SUV">
        <route edges="west_recto_0 west_recto_1 north_roa_0 north_roa_1" />
    </vehicle>
    <vehicle id="b0_62" depart="392.96" type="cars_SUV">
        <route edges="east_recto_0 east_recto_1 east_recto_2" />
    </vehicle>
    <vehicle id="b0_63" depart="399.30" type="cars_SUV">
        <route edges="north_osmena_0 north_osmena_1 north_osmena_2 north_osmena_3" />
    </vehicle>
    <vehicle id="b0_64" depart="405.63" type="cars_SUV">
        <route edges="west_recto_0 west_recto_1 west_recto_2 west_recto_3" />
    </vehicle>
    <vehicle id="b0_65" depart="411.97" type="cars_SUV">
        <route edges="east_recto_0 east_recto_1 north_corrales_1 north_corrales_2" />
    </vehicle>
    <vehicle id="b0_66" depart="418.31" type="cars_SUV">
        <route edges="north_corrales_0 west_recto_1 west_recto_2 north_osmena_1 north_osmena_2 north_osmena_3" />
    </vehicle>
    <vehicle id="b0_67" depart="424.65" type="cars_SUV">
        <route edges="east_florentino_0 north_osmena_2 north_osmena_3" />
    </vehicle>
    <vehicle id="b0_68" depart="430.99" type="cars_SUV">
        <route edges="east_recto_0 east_recto_1 south_corrales_2" />
    </vehicle>
    <vehicle id="b0_69" depart="437.32" type="cars_SUV">
        <route edges="west_recto_0 south_corrales_2" />
    </vehicle>
    <vehicle id="b0_70" depart="443.66" type="cars_SUV">
        <route edges="north_corrales_0 west_recto_1 west_recto_2 north_osmena_1 west_florentino_0" />
    </vehicle>
    <vehicle id="b0_71" depart="450.00" type="cars_SUV">
        <route edges="west_recto_0 west_recto_1 north_roa_0 north_roa_1" />
    </vehicle>
    <vehicle id="b0_72" depart="456.34" type="cars_SUV">
        <route edges="west_recto_0 west_recto_1 west_recto_2 west_recto_3" />
    </vehicle>
    <vehicle id="b0_73" depart="462.68" type="cars_SUV">
        <route edges="west_recto_0 west_recto_1 north_roa_0 north_roa_1" />
    </vehicle>
    <vehicle id="b0_74" depart="469.01" type="cars_SUV">
        <route edges="north_osmena_0 north_osmena_1 north_osmena_2 east_luna_0 north_roa_1" />
    </vehicle>
    <vehicle id="b0_75" depart="475.35" type="cars_SUV">
        <route edges="west_recto_0 south_corrales_2" />
    </vehicle>
    <vehicle id="b0_76" depart="481.69" type="cars_SUV">
        <route edges="east_recto_0 east_recto_1 east_recto_2" />
    </vehicle>
    <vehicle id="b0_77" depart="488.03" type="cars_SUV">
        <route edges="east_florentino_0 north_osmena_2 north_osmena_3" />
    </vehicle>
    <vehicle id="b0_78" depart="494.37" type="cars_SUV">
        <route edges="east_recto_0 east_recto_1 east_recto_2" />
    </vehicle>
    <vehicle id="b0_79" depart="500.70" type="cars_SUV">
        <route edges="east_recto_0 east_recto_1 east_recto_2" />
    </vehicle>
    <vehicle id="b0_80" depart="507.04" type="cars_SUV">
        <route edges="north_osmena_0 north_osmena_1 north_osmena_2 north_osmena_3" />
    </vehicle>
    <vehicle id="b0_81" depart="513.38" type="cars_SUV">
        <route edges="south_corrales_0 south_corrales_1 south_corrales_2" />
    </vehicle>
    <vehicle id="b0_82" depart="519.72" type="cars_SUV">
        <route edges="north_corrales_0 north_corrales_1 north_corrales_2" />
    </vehicle>
    <vehicle id="b0_83" depart="526.06" type="cars_SUV">
        <route edges="east_recto_0 east_recto_1 east_recto_2" />
    </vehicle>
    <vehicle id="b0_84" depart="532.39" type="cars_SUV">
        <route edges="south_osmena_0 south_osmena_1 south_osmena_2 west_recto_3" />
    </vehicle>
    <vehicle id="b0_85" depart="538.73" type="cars_SUV">
        <route edges="south_corrales_0 south_corrales_1 south_corrales_2" />
    </vehicle>
    <vehicle id="b0_86" depart="545.07" type="cars_SUV">
        <route edges="east_recto_0 east_recto_1 east_recto_2" />
    </vehicle>
    <vehicle id="b0_87" depart="551.41" type="cars_SUV">
        <route edges="west_recto_0 west_recto_1 north_roa_0 north_roa_1" />
    </vehicle>
    <vehicle id="b0_88" depart="557.75" type="cars_SUV">
        <route edges="south_osmena_0 south_osmena_1 south_osmena_2 west_recto_3" />
    </vehicle>
    <vehicle id="b0_89" depart="564.08" type="cars_SUV">
        <route edges="east_recto_0 east_recto_1 east_recto_2" />
    </vehicle>
    <vehicle id="b0_90" depart="570.42" type="cars_SUV">
        <route edges="west_recto_0 west_recto_1 west_recto_2 west_recto_3" />
    </vehicle>
    <vehicle id="b0_91" depart="576.76" type="cars_SUV">
        <route edges="west_recto_0 west_recto_1 west_recto_2 west_recto_3" />
    </vehicle>
    <vehicle id="b0_92" depart="583.10" type="cars_SUV">
        <route edges="east_florentino_0 north_osmena_2 north_osmena_3" />
    </vehicle>
    <vehicle id="b0_93" depart="589.44" type="cars_SUV">
        <route edges="south_corrales_0 south_corrales_1 west_recto_1 west_recto_2 south_osmena_3" />
    </vehicle>
    <vehicle id="b0_94" depart="595.77" type="cars_SUV">
        <route edges="east_recto_0 east_recto_1 south_corrales_2" />
    </vehicle>
    <vehicle id="b0_95" depart="602.11" type="cars_SUV">
        <route edges="west_recto_0 west_recto_1 west_recto_2 south_osmena_3" />
    </vehicle>
    <vehicle id="b0_96" depart="608.45" type="cars_SUV">
        <route edges="south_osmena_0 east_luna_0 north_roa_1 south_roa_0 west_luna_2 north_osmena_3" />
    </vehicle>
    <vehicle id="b0_97" depart="614.79" type="cars_SUV">
        <route edges="west_recto_0 west_recto_1 west_recto_2 west_recto_3" />
    </vehicle>
    <vehicle id="b0_98" depart="621.13" type="cars_SUV">
        <route edges="south_corrales_0 south_corrales_1 east_recto_2" />
    </vehicle>
    <vehicle id="b0_99" depart="627.46" type="cars_SUV">
        <route edges="south_corrales_0 south_corrales_1 west_recto_1 west_recto_2 south_osmena_3" />
    </vehicle>
    <vehicle id="b0_100" depart="633.80" type="cars_SUV">
        <route edges="south_corrales_0 south_corrales_1 west_recto_1 west_recto_2 south_osmena_3" />
    </vehicle>
    <vehicle id="b0_101" depart="640.14" type="cars_SUV">
        <route edges="south_roa_0 east_luna_1 south_corrales_1 east_recto_2" />
    </vehicle>
    <vehicle id="b0_102" depart="646.48" type="cars_SUV">
        <route edges="east_recto_0 east_recto_1 north_corrales_1 north_corrales_2" />
    </vehicle>
    <vehicle id="b0_103" depart="652.82" type="cars_SUV">
        <route edges="east_recto_0 east_recto_1 east_recto_2" />
    </vehicle>
    <vehicle id="b0_104" depart="659.15" type="cars_SUV">
        <route edges="west_recto_0 west_recto_1 west_recto_2 west_recto_3" />
    </vehicle>
    <vehicle id="b0_105" depart="665.49" type="cars_SUV">
        <route edges="south_osmena_0 east_luna_0 north_roa_1 south_roa_0 west_luna_2 north_osmena_3" />
    </vehicle>
    <vehicle id="b0_106" depart="671.83" type="cars_SUV">
        <route edges="east_recto_0 south_osmena_3" />
    </vehicle>
    <vehicle id="b0_107" depart="678.17" type="cars_SUV">
        <route edges="north_corrales_0 north_corrales_1 north_corrales_2" />
    </vehicle>
    <vehicle id="b0_108" depart="684.51" type="cars_SUV">
        <route edges="south_corrales_0 south_corrales_1 east_recto_2" />
    </vehicle>
    <vehicle id="b0_109" depart="690.85" type="cars_SUV">
        <route edges="north_corrales_0 west_recto_1 west_recto_2 north_osmena_1 north_osmena_2 north_osmena_3" />
    </vehicle>
    <vehicle id="b0_110" depart="697.18" type="cars_SUV">
        <route edges="south_corrales_0 south_corrales_1 west_recto_1 west_recto_2 south_osmena_3" />
    </vehicle>
    <vehicle id="b0_111" depart="703.52" type="cars_SUV">
        <route edges="south_corrales_0 south_corrales_1 east_recto_2" />
    </vehicle>
    <vehicle id="b0_112" depart="709.86" type="cars_SUV">
        <route edges="west_recto_0 west_recto_1 west_recto_2 west_recto_3" />
    </vehicle>
    <vehicle id="b0_113" depart="716.20" type="cars_SUV">
        <route edges="east_recto_0 east_recto_1 south_corrales_2" />
    </vehicle>
    <vehicle id="b0_114" depart="722.54" type="cars_SUV">
        <route edges="west_recto_0 north_corrales_1 north_corrales_2" />
    </vehicle>
    <vehicle id="b0_115" depart="728.87" type="cars_SUV">
        <route edges="north_corrales_0 north_corrales_1 north_corrales_2" />
    </vehicle>
    <vehicle id="b0_116" depart="735.21" type="cars_SUV">
        <route edges="north_corrales_0 north_corrales_1 north_corrales_2" />
    </vehicle>
    <vehicle id="b0_117" depart="741.55" type="cars_SUV">
        <route edges="west_recto_0 west_recto_1 west_recto_2 west_recto_3" />
    </vehicle>
    <vehicle id="b0_118" depart="747.89" type="cars_SUV">
        <route edges="east_recto_0 east_recto_1 south_corrales_2" />
    </vehicle>
    <vehicle id="b0_119" depart="754.23" type="cars_SUV">
        <route edges="east_recto_0 east_recto_1 north_corrales_1 north_corrales_2" />
    </vehicle>
    <vehicle id="b0_120" depart="760.56" type="cars_SUV">
        <route edges="east_florentino_0 north_osmena_2 north_osmena_3" />
    </vehicle>
    <vehicle id="b0_121" depart="766.90" type="cars_SUV">
        <route edges="east_florentino_0 north_osmena_2 north_osmena_3" />
    </vehicle>
    <vehicle id="b0_122" depart="773.24" type="cars_SUV">
        <route edges="south_osmena_0 south_osmena_1 south_osmena_2 south_osmena_3" />
    </vehicle>
    <vehicle id="b0_123" depart="779.58" type="cars_SUV">
        <route edges="north_corrales_0 north_corrales_1 north_corrales_2" />
    </vehicle>
    <vehicle id="b0_124" depart="785.92" type="cars_SUV">
        <route edges="west_luna_0 west_luna_1 north_roa_1" />
    </vehicle>
    <vehicle id="b0_125" depart="792.25" type="cars_SUV">
        <route edges="south_osmena_0 south_osmena_1 south_osmena_2 south_osmena_3" />
    </vehicle>
    <vehicle id="b0_126" depart="798.59" type="cars_SUV">
        <route edges="west_recto_0 north_corrales_1 north_corrales_2" />
    </vehicle>
    <vehicle id="b0_127" depart="804.93" type="cars_SUV">
        <route edges="west_recto_0 north_corrales_1 north_corrales_2" />
    </vehicle>
    <vehicle id="b0_128" depart="811.27" type="cars_SUV">
        <route edges="east_recto_0 east_recto_1 north_corrales_1 north_corrales_2" />
    </vehicle>
    <vehicle id="b0_129" depart="817.61" type="cars_SUV">
        <route edges="west_recto_0 west_recto_1 west_recto_2 west_recto_3" />
    </vehicle>
    <vehicle id="b0_130" depart="823.94" type="cars_SUV">
        <route edges="south_osmena_0 south_osmena_1 west_florentino_0" />
    </vehicle>
    <vehicle id="b0_131" depart="830.28" type="cars_SUV">
        <route edges="east_florentino_0 north_osmena_2 north_osmena_3" />
    </vehicle>
    <vehicle id="b0_132" depart="836.62" type="cars_SUV">
        <route edges="south_corrales_0 south_corrales_1 south_corrales_2" />
    </vehicle>
    <vehicle id="b0_133" depart="842.96" type="cars_SUV">
        <route edges="east_recto_0 north_osmena_1 west_florentino_0" />
    </vehicle>
    <vehicle id="b0_134" depart="849.30" type="cars_SUV">
        <route edges="north_corrales_0 north_corrales_1 east_luna_2" />
    </vehicle>
    <vehicle id="b0_135" depart="855.63" type="cars_SUV">
        <route edges="south_osmena_0 south_osmena_1 south_osmena_2 east_recto_1 east_recto_2" />
    </vehicle>
    <vehicle id="b0_136" depart="861.97" type="cars_SUV">
        <route edges="east_recto_0 east_recto_1 east_recto_2" />
    </vehicle>
    <vehicle id="b0_137" depart="868.31" type="cars_SUV">
        <route edges="west_luna_0 west_luna_1 north_roa_1 south_roa_0 east_luna_1 east_luna_2" />
    </vehicle>
    <vehicle id="b0_138" depart="874.65" type="cars_SUV">
        <route edges="south_osmena_0 east_luna_0 east_luna_1 east_luna_2" />
    </vehicle>
    <vehicle id="b0_139" depart="880.99" type="cars_SUV">
        <route edges="east_recto_0 east_recto_1 east_recto_2" />
    </vehicle>
    <vehicle id="b0_140" depart="887.32" type="cars_SUV">
        <route edges="west_luna_0 north_corrales_2" />
    </vehicle>
    <vehicle id="b0_141" depart="893.66" type="cars_SUV">
        <route edges="south_osmena_0 south_osmena_1 south_osmena_2 south_osmena_3" />
    </vehicle>
    <vehicle id="b0_142" depart="900.00" type="cars_SUV">
        <route edges="west_recto_0 south_corrales_2" />
    </vehicle>
    <vehicle id="b0_143" depart="906.34" type="cars_SUV">
        <route edges="west_recto_0 west_recto_1 north_roa_0 east_luna_1 south_corrales_1 east_recto_2" />
    </vehicle>
    <vehicle id="b0_144" depart="912.68" type="cars_SUV">
        <route edges="east_recto_0 east_recto_1 north_corrales_1 north_corrales_2" />
    </vehicle>
    <vehicle id="b0_145" depart="919.01" type="cars_SUV">
        <route edges="west_recto_0 west_recto_1 west_recto_2 west_recto_3" />
    </vehicle>
    <vehicle id="b0_146" depart="925.35" type="cars_SUV">
        <route edges="east_recto_0 east_recto_1 south_corrales_2" />
    </vehicle>
    <vehicle id="b0_147" depart="931.69" type="cars_SUV">
        <route edges="west_recto_0 north_corrales_1 north_corrales_2" />
    </vehicle>
    <vehicle id="b0_148" depart="938.03" type="cars_SUV">
        <route edges="north_osmena_0 north_osmena_1 north_osmena_2 north_osmena_3" />
    </vehicle>
    <vehicle id="b0_149" depart="944.37" type="cars_SUV">
        <route edges="north_osmena_0 north_osmena_1 west_florentino_0" />
    </vehicle>
    <vehicle id="b0_150" depart="950.70" type="cars_SUV">
        <route edges="east_recto_0 north_osmena_1 north_osmena_2 east_luna_0 north_roa_1" />
    </vehicle>
    <vehicle id="b0_151" depart="957.04" type="cars_SUV">
        <route edges="east_florentino_0 north_osmena_2 north_osmena_3" />
    </vehicle>
    <vehicle id="b0_152" depart="963.38" type="cars_SUV">
        <route edges="east_recto_0 east_recto_1 east_recto_2" />
    </vehicle>
    <vehicle id="b0_153" depart="969.72" type="cars_SUV">
        <route edges="north_osmena_0 north_osmena_1 north_osmena_2 east_luna_0 south_roa_1 west_recto_2 south_osmena_3" />
    </vehicle>
    <vehicle id="b0_154" depart="976.06" type="cars_SUV">
        <route edges="north_osmena_0 east_recto_1 east_recto_2" />
    </vehicle>
    <vehicle id="b0_155" depart="982.39" type="cars_SUV">
        <route edges="east_florentino_0 north_osmena_2 east_luna_0 east_luna_1 east_luna_2" />
    </vehicle>
    <vehicle id="b0_156" depart="988.73" type="cars_SUV">
        <route edges="north_osmena_0 north_osmena_1 north_osmena_2 north_osmena_3" />
    </vehicle>
    <vehicle id="b0_157" depart="995.07" type="cars_SUV">
        <route edges="south_corrales_0 south_corrales_1 south_corrales_2" />
    </vehicle>
    <vehicle id="b0_158" depart="1001.41" type="cars_SUV">
        <route edges="east_recto_0 south_osmena_3" />
    </vehicle>
    <vehicle id="b0_159" depart="1007.75" type="cars_SUV">
        <route edges="south_osmena_0 south_osmena_1 south_osmena_2 east_recto_1 north_corrales_1 north_corrales_2" />
    </vehicle>
    <vehicle id="b0_160" depart="1014.08" type="cars_SUV">
        <route edges="east_recto_0 east_recto_1 south_corrales_2" />
    </vehicle>
    <vehicle id="b0_161" depart="1020.42" type="cars_SUV">
        <route edges="west_recto_0 west_recto_1 west_recto_2 north_osmena_1 north_osmena_2 north_osmena_3" />
    </vehicle>
    <vehicle id="b0_162" depart="1026.76" type="cars_SUV">
        <route edges="north_corrales_0 north_corrales_1 north_corrales_2" />
    </vehicle>
    <vehicle id="b0_163" depart="1033.10" type="cars_SUV">
        <route edges="west_recto_0 west_recto_1 west_recto_2 west_recto_3" />
    </vehicle>
    <vehicle id="b0_164" depart="1039.44" type="cars_SUV">
        <route edges="west_recto_0 west_recto_1 west_recto_2 north_osmena_1 north_osmena_2 north_osmena_3" />
    </vehicle>
    <vehicle id="b0_165" depart="1045.77" type="cars_SUV">
        <route edges="west_recto_0 west_recto_1 west_recto_2 south_osmena_3" />
    </vehicle>
    <vehicle id="b0_166" depart="1052.11" type="cars_SUV">
        <route edges="west_luna_0 north_corrales_2" />
    </vehicle>
    <vehicle id="b0_167" depart="1058.45" type="cars_SUV">
        <route edges="west_luna_0 north_corrales_2" />
    </vehicle>
    <vehicle id="b0_168" depart="1064.79" type="cars_SUV">
        <route edges="east_florentino_0 north_osmena_2 east_luna_0 east_luna_1 east_luna_2" />
    </vehicle>
    <vehicle id="b0_169" depart="1071.13" type="cars_SUV">
        <route edges="south_corrales_0 west_luna_1 north_roa_1 south_roa_0 east_luna_1 east_luna_2" />
    </vehicle>
    <vehicle id="b0_170" depart="1077.46" type="cars_SUV">
        <route edges="east_recto_0 east_recto_1 east_recto_2" />
    </vehicle>
    <vehicle id="b0_171" depart="1083.80" type="cars_SUV">
        <route edges="north_osmena_0 north_osmena_1 north_osmena_2 north_osmena_3" />
    </vehicle>
    <vehicle id="b0_172" depart="1090.14" type="cars_SUV">
        <route edges="east_recto_0 east_recto_1 east_recto_2" />
    </vehicle>
    <vehicle id="b0_173" depart="1096.48" type="cars_SUV">
        <route edges="north_osmena_0 north_osmena_1 north_osmena_2 north_osmena_3" />
    </vehicle>
    <vehicle id="b0_174" depart="1102.82" type="cars_SUV">
        <route edges="east_recto_0 east_recto_1 south_corrales_2" />
    </vehicle>
    <vehicle id="b0_175" depart="1109.15" type="cars_SUV">
        <route edges="west_recto_0 west_recto_1 west_recto_2 west_recto_3" />
    </vehicle>
    <vehicle id="b0_176" depart="1115.49" type="cars_SUV">
        <route edges="east_recto_0 east_recto_1 east_recto_2" />
    </vehicle>
    <vehicle id="b0_177" depart="1121.83" type="cars_SUV">
        <route edges="south_corrales_0 south_corrales_1 south_corrales_2" />
    </vehicle>
    <vehicle id="b0_178" depart="1128.17" type="cars_SUV">
        <route edges="east_florentino_0 north_osmena_2 north_osmena_3" />
    </vehicle>
    <vehicle id="b0_179" depart="1134.51" type="cars_SUV">
        <route edges="east_florentino_0 south_osmena_2 west_recto_3" />
    </vehicle>
    <vehicle id="b0_180" depart="1140.85" type="cars_SUV">
        <route edges="west_recto_0 south_corrales_2" />
    </vehicle>
    <vehicle id="b0_181" depart="1147.18" type="cars_SUV">
        <route edges="west_recto_0 west_recto_1 west_recto_2 west_recto_3" />
    </vehicle>
    <vehicle id="b0_182" depart="1153.52" type="cars_SUV">
        <route edges="east_florentino_0 north_osmena_2 north_osmena_3" />
    </vehicle>
    <vehicle id="b0_183" depart="1159.86" type="cars_SUV">
        <route edges="east_recto_0 east_recto_1 east_recto_2" />
    </vehicle>
    <vehicle id="b0_184" depart="1166.20" type="cars_SUV">
        <route edges="south_roa_0 east_luna_1 east_luna_2" />
    </vehicle>
    <vehicle id="b0_185" depart="1172.54" type="cars_SUV">
        <route edges="south_osmena_0 south_osmena_1 south_osmena_2 east_recto_1 east_recto_2" />
    </vehicle>
    <vehicle id="b0_186" depart="1178.87" type="cars_SUV">
        <route edges="east_recto_0 east_recto_1 south_corrales_2" />
    </vehicle>
    <vehicle id="b0_187" depart="1185.21" type="cars_SUV">
        <route edges="south_corrales_0 south_corrales_1 south_corrales_2" />
    </vehicle>
    <vehicle id="b0_188" depart="1191.55" type="cars_SUV">
        <route edges="west_recto_0 south_corrales_2" />
    </vehicle>
    <vehicle id="b0_189" depart="1197.89" type="cars_SUV">
        <route edges="west_recto_0 west_recto_1 west_recto_2 north_osmena_1 north_osmena_2 north_osmena_3" />
    </vehicle>
    <vehicle id="b0_190" depart="1204.23" type="cars_SUV">
        <route edges="east_recto_0 east_recto_1 east_recto_2" />
    </vehicle>
    <vehicle id="b0_191" depart="1210.56" type="cars_SUV">
        <route edges="west_recto_0 south_corrales_2" />
    </vehicle>
    <vehicle id="b0_192" depart="1216.90" type="cars_SUV">
        <route edges="east_recto_0 east_recto_1 east_recto_2" />
    </vehicle>
    <vehicle id="b0_193" depart="1223.24" type="cars_SUV">
        <route edges="north_corrales_0 west_recto_1 west_recto_2 north_osmena_1 west_florentino_0" />