<routes xmlns:xsi="http://www.w3.org/2001/XMLSchema-instance" xsi:noNamespaceSchemaLocation="http://sumo.dlr.de/xsd/routes_file.xsd">
<vType id="motorcycles_scooters" accel="1.0" decel="4.5" sigma="0.5" length="2.0" minGap="0.5" maxSpeed="30.0" guiShape="bicycle" color="255,0,0" />

    <vehicle id="40_0" depart="0.00" type="motorcycles_scooters">
        <route edges="east_recto_0 east_recto_1 east_recto_2" />
    </vehicle>
    <vehicle id="40_1" depart="11.76" type="motorcycles_scooters">
        <route edges="west_luna_0 north_corrales_2" />
    </vehicle>
    <vehicle id="40_2" depart="23.53" type="motorcycles_scooters">
        <route edges="south_osmena_0 south_osmena_1 west_florentino_0" />
    </vehicle>
    <vehicle id="40_3" depart="35.29" type="motorcycles_scooters">
        <route edges="west_recto_0 west_recto_1 west_recto_2 west_recto_3" />
    </vehicle>
    <vehicle id="40_4" depart="47.06" type="motorcycles_scooters">
        <route edges="west_luna_0 north_corrales_2" />
    </vehicle>
    <vehicle id="40_5" depart="58.82" type="motorcycles_scooters">
        <route edges="west_recto_0 west_recto_1 west_recto_2 west_recto_3" />
    </vehicle>
    <vehicle id="40_6" depart="70.59" type="motorcycles_scooters">
        <route edges="north_corrales_0 north_corrales_1 north_corrales_2" />
    </vehicle>
    <vehicle id="40_7" depart="82.35" type="motorcycles_scooters">
        <route edges="south_corrales_0 south_corrales_1 west_recto_1 west_recto_2 west_recto_3" />
    </vehicle>
    <vehicle id="40_8" depart="94.12" type="motorcycles_scooters">
        <route edges="north_corrales_0 west_recto_1 west_recto_2 south_osmena_3" />
    </vehicle>
    <vehicle id="40_9" depart="105.88" type="motorcycles_scooters">
        <route edges="west_recto_0 west_recto_1 north_roa_0 east_luna_1 south_corrales_1 east_recto_2" />
    </vehicle>
    <vehicle id="40_10" depart="117.65" type="motorcycles_scooters">
        <route edges="east_florentino_0 north_osmena_2 north_osmena_3" />
    </vehicle>
    <vehicle id="40_11" depart="129.41" type="motorcycles_scooters">
        <route edges="west_recto_0 west_recto_1 west_recto_2 west_recto_3" />
    </vehicle>
    <vehicle id="40_12" depart="141.18" type="motorcycles_scooters">
        <route edges="south_osmena_0 east_luna_0 north_roa_1" />
    </vehicle>
    <vehicle id="40_13" depart="152.94" type="motorcycles_scooters">
        <route edges="north_osmena_0 west_recto_3" />
    </vehicle>
    <vehicle id="40_14" depart="164.71" type="motorcycles_scooters">
        <route edges="east_recto_0 north_osmena_1 north_osmena_2 north_osmena_3" />
    </vehicle>
    <vehicle id="40_15" depart="176.47" type="motorcycles_scooters">
        <route edges="north_osmena_0 north_osmena_1 north_osmena_2 north_osmena_3" />
    </vehicle>
    <vehicle id="40_16" depart="188.24" type="motorcycles_scooters">
        <route edges="east_recto_0 east_recto_1 north_corrales_1 north_corrales_2" />
    </vehicle>
    <vehicle id="40_17" depart="200.00" type="motorcycles_scooters">
        <route edges="east_recto_0 north_osmena_1 north_osmena_2 north_osmena_3" />
    </vehicle>
    <vehicle id="40_18" depart="211.76" type="motorcycles_scooters">
        <route edges="east_recto_0 east_recto_1 south_corrales_2" />
    </vehicle>
    <vehicle id="40_19" depart="223.53" type="motorcycles_scooters">
        <route edges="south_roa_0 east_luna_1 south_corrales_1 east_recto_2" />
    </vehicle>
    <vehicle id="40_20" depart="235.29" type="motorcycles_scooters">
        <route edges="east_recto_0 east_recto_1 south_corrales_2" />
    </vehicle>
    <vehicle id="40_21" depart="247.06" type="motorcycles_scooters">
        <route edges="west_recto_0 west_recto_1 west_recto_2 west_recto_3" />
    </vehicle>
    <vehicle id="40_22" depart="258.82" type="motorcycles_scooters">
        <route edges="south_osmena_0 south_osmena_1 south_osmena_2 east_recto_1 east_recto_2" />
    </vehicle>
    <vehicle id="40_23" depart="270.59" type="motorcycles_scooters">
        <route edges="west_recto_0 west_recto_1 west_recto_2 west_recto_3" />
    </vehicle>
    <vehicle id="40_24" depart="282.35" type="motorcycles_scooters">
        <route edges="east_recto_0 east_recto_1 east_recto_2" />
    </vehicle>
    <vehicle id="40_25" depart="294.12" type="motorcycles_scooters">
        <route edges="east_recto_0 east_recto_1 north_corrales_1 north_corrales_2" />
    </vehicle>
    <vehicle id="40_26" depart="305.88" type="motorcycles_scooters">
        <route edges="west_recto_0 west_recto_1 west_recto_2 west_recto_3" />
    </vehicle>
    <vehicle id="40_27" depart="317.65" type="motorcycles_scooters">
        <route edges="south_osmena_0 south_osmena_1 south_osmena_2 south_osmena_3" />
    </vehicle>
    <vehicle id="40_28" depart="329.41" type="motorcycles_scooters">
        <route edges="east_recto_0 east_recto_1 east_recto_2" />
    </vehicle>
    <vehicle id="40_29" depart="341.18" type="motorcycles_scooters">
        <route edges="south_corrales_0 south_corrales_1 west_recto_1 west_recto_2 west_recto_3" />
    </vehicle>
    <vehicle id="40_30" depart="352.94" type="motorcycles_scooters">
        <route edges="west_recto_0 south_corrales_2" />
    </vehicle>
    <vehicle id="40_31" depart="364.71" type="motorcycles_scooters">
        <route edges="west_recto_0 west_recto_1 north_roa_0 east_luna_1 south_corrales_1 east_recto_2" />
    </vehicle>
    <vehicle id="40_32" depart="376.47" type="motorcycles_scooters">
        <route edges="west_recto_0 west_recto_1 north_roa_0 north_roa_1" />
    </vehicle>
    <vehicle id="40_33" depart="388.24" type="motorcycles_scooters">
        <route edges="west_recto_0 south_corrales_2" />
    </vehicle>
    <vehicle id="40_34" depart="400.00" type="motorcycles_scooters">
        <route edges="east_florentino_0 north_osmena_2 north_osmena_3" />
    </vehicle>
    <vehicle id="40_35" depart="411.76" type="motorcycles_scooters">
        <route edges="west_recto_0 west_recto_1 north_roa_0 north_roa_1" />
    </vehicle>
    <vehicle id="40_36" depart="423.53" type="motorcycles_scooters">
        <route edges="west_recto_0 west_recto_1 west_recto_2 west_recto_3" />
    </vehicle>
    <vehicle id="40_37" depart="435.29" type="motorcycles_scooters">
        <route edges="east_recto_0 east_recto_1 east_recto_2" />
    </vehicle>
    <vehicle id="40_38" depart="447.06" type="motorcycles_scooters">
        <route edges="south_osmena_0 east_luna_0 north_roa_1 south_roa_0 west_luna_2 north_osmena_3" />
    </vehicle>
    <vehicle id="40_39" depart="458.82" type="motorcycles_scooters">
        <route edges="north_corrales_0 west_recto_1 west_recto_2 north_osmena_1 west_florentino_0" />
    </vehicle>
    <vehicle id="40_40" depart="470.59" type="motorcycles_scooters">
        <route edges="west_recto_0 west_recto_1 west_recto_2 west_recto_3" />
    </vehicle>
    <vehicle id="40_41" depart="482.35" type="motorcycles_scooters">
        <route edges="east_florentino_0 north_osmena_2 east_luna_0 east_luna_1 east_luna_2" />
    </vehicle>
    <vehicle id="40_42" depart="494.12" type="motorcycles_scooters">
        <route edges="east_recto_0 east_recto_1 south_corrales_2" />
    </vehicle>
    <vehicle id="40_43" depart="505.88" type="motorcycles_scooters">
        <route edges="east_florentino_0 north_osmena_2 north_osmena_3" />
    </vehicle>
    <vehicle id="40_44" depart="517.65" type="motorcycles_scooters">
        <route edges="south_osmena_0 east_luna_0 north_roa_1 south_roa_0 west_luna_2 north_osmena_3" />
    </vehicle>
    <vehicle id="40_45" depart="529.41" type="motorcycles_scooters">
        <route edges="west_recto_0 west_recto_1 north_roa_0 north_roa_1" />
    </vehicle>
    <vehicle id="40_46" depart="541.18" type="motorcycles_scooters">
        <route edges="east_florentino_0 north_osmena_2 north_osmena_3" />
    </vehicle>
    <vehicle id="40_47" depart="552.94" type="motorcycles_scooters">
        <route edges="south_roa_0 east_luna_1 south_corrales_1 south_corrales_2" />
    </vehicle>
    <vehicle id="40_48" depart="564.71" type="motorcycles_scooters">
        <route edges="west_recto_0 north_corrales_1 north_corrales_2" />
    </vehicle>
    <vehicle id="40_49" depart="576.47" type="motorcycles_scooters">
        <route edges="west_recto_0 west_recto_1 west_recto_2 west_recto_3" />
    </vehicle>
    <vehicle id="40_50" depart="588.24" type="motorcycles_scooters">
        <route edges="west_recto_0 north_corrales_1 north_corrales_2" />
    </vehicle>
    <vehicle id="40_51" depart="600.00" type="motorcycles_scooters">
        <route edges="west_luna_0 west_luna_1 north_roa_1 south_roa_0 east_luna_1 east_luna_2" />
    </vehicle>
    <vehicle id="40_52" depart="611.76" type="motorcycles_scooters">
        <route edges="south_corrales_0 south_corrales_1 south_corrales_2" />
    </vehicle>
    <vehicle id="40_53" depart="623.53" type="motorcycles_scooters">
        <route edges="east_recto_0 east_recto_1 north_corrales_1 north_corrales_2" />
    </vehicle>
    <vehicle id="40_54" depart="635.29" type="motorcycles_scooters">
        <route edges="north_osmena_0 north_osmena_1 north_osmena_2 east_luna_0 north_roa_1" />
    </vehicle>
    <vehicle id="40_55" depart="647.06" type="motorcycles_scooters">
        <route edges="south_corrales_0 south_corrales_1 south_corrales_2" />
    </vehicle>
    <vehicle id="40_56" depart="658.82" type="motorcycles_scooters">
        <route edges="east_recto_0 east_recto_1 south_corrales_2" />
    </vehicle>
    <vehicle id="40_57" depart="670.59" type="motorcycles_scooters">
        <route edges="west_recto_0 west_recto_1 north_roa_0 north_roa_1" />
    </vehicle>
    <vehicle id="40_58" depart="682.35" type="motorcycles_scooters">
        <route edges="south_corrales_0 south_corrales_1 west_recto_1 west_recto_2 west_recto_3" />
    </vehicle>
    <vehicle id="40_59" depart="694.12" type="motorcycles_scooters">
        <route edges="south_corrales_0 south_corrales_1 south_corrales_2" />
    </vehicle>
    <vehicle id="40_60" depart="705.88" type="motorcycles_scooters">
        <route edges="east_recto_0 east_recto_1 east_recto_2" />
    </vehicle>
    <vehicle id="40_61" depart="717.65" type="motorcycles_scooters">
        <route edges="south_corrales_0 south_corrales_1 west_recto_1 west_recto_2 west_recto_3" />
    </vehicle>
    <vehicle id="40_62" depart="729.41" type="motorcycles_scooters">
        <route edges="west_recto_0 north_corrales_1 north_corrales_2" />
    </vehicle>
    <vehicle id="40_63" depart="741.18" type="motorcycles_scooters">
        <route edges="south_corrales_0 south_corrales_1 west_recto_1 west_recto_2 south_osmena_3" />
    </vehicle>
    <vehicle id="40_64" depart="752.94" type="motorcycles_scooters">
        <route edges="south_corrales_0 west_luna_1 west_luna_2 south_osmena_1 west_florentino_0" />
    </vehicle>
    <vehicle id="40_65" depart="764.71" type="motorcycles_scooters">
        <route edges="north_osmena_0 north_osmena_1 north_osmena_2 north_osmena_3" />
    </vehicle>
    <vehicle id="40_66" depart="776.47" type="motorcycles_scooters">
        <route edges="south_corrales_0 south_corrales_1 south_corrales_2" />
    </vehicle>
    <vehicle id="40_67" depart="788.24" type="motorcycles_scooters">
        <route edges="north_corrales_0 north_corrales_1 east_luna_2" />
    </vehicle>
    <vehicle id="40_68" depart="800.00" type="motorcycles_scooters">
        <route edges="east_recto_0 east_recto_1 east_recto_2" />
    </vehicle>
    <vehicle id="40_69" depart="811.76" type="motorcycles_scooters">
        <route edges="south_corrales_0 south_corrales_1 south_corrales_2" />
    </vehicle>
    <vehicle id="40_70" depart="823.53" type="motorcycles_scooters">
        <route edges="south_osmena_0 south_osmena_1 south_osmena_2 south_osmena_3" />
    </vehicle>
    <vehicle id="40_71" depart="835.29" type="motorcycles_scooters">
        <route edges="west_recto_0 west_recto_1 west_recto_2 west_recto_3" />
    </vehicle>
    <vehicle id="40_72" depart="847.06" type="motorcycles_scooters">
        <route edges="south_corrales_0 south_corrales_1 south_corrales_2" />
    </vehicle>
    <vehicle id="40_73" depart="858.82" type="motorcycles_scooters">
        <route edges="north_corrales_0 north_corrales_1 north_corrales_2" />
    </vehicle>
    <vehicle id="40_74" depart="870.59" type="motorcycles_scooters">
        <route edges="west_luna_0 north_corrales_2" />
    </vehicle>
    <vehicle id="40_75" depart="882.35" type="motorcycles_scooters">
        <route edges="west_recto_0 north_corrales_1 north_corrales_2" />
    </vehicle>
    <vehicle id="40_76" depart="894.12" type="motorcycles_scooters">
        <route edges="west_luna_0 west_luna_1 north_roa_1 south_roa_0 east_luna_1 east_luna_2" />
    </vehicle>
    <vehicle id="40_77" depart="905.88" type="motorcycles_scooters">
        <route edges="east_florentino_0 north_osmena_2 north_osmena_3" />
    </vehicle>
    <vehicle id="40_78" depart="917.65" type="motorcycles_scooters">
        <route edges="west_recto_0 west_recto_1 west_recto_2 west_recto_3" />
    </vehicle>
    <vehicle id="40_79" depart="929.41" type="motorcycles_scooters">
        <route edges="west_recto_0 west_recto_1 west_recto_2 west_recto_3" />
    </vehicle>
    <vehicle id="40_80" depart="941.18" type="motorcycles_scooters">
        <route edges="west_luna_0 west_luna_1 south_roa_1 west_recto_2 west_recto_3" />
    </vehicle>
    <vehicle id="40_81" depart="952.94" type="motorcycles_scooters">
        <route edges="west_recto_0 west_recto_1 west_recto_2 west_recto_3" />
    </vehicle>
    <vehicle id="40_82" depart="964.71" type="motorcycles_scooters">
        <route edges="west_recto_0 south_corrales_2" />
    </vehicle>
    <vehicle id="40_83" depart="976.47" type="motorcycles_scooters">
        <route edges="east_florentino_0 north_osmena_2 east_luna_0 east_luna_1 east_luna_2" />
    </vehicle>
    <vehicle id="40_84" depart="988.24" type="motorcycles_scooters">
        <route edges="east_florentino_0 north_osmena_2 north_osmena_3" />
    </vehicle>
    <vehicle id="40_85" depart="1000.00" type="motorcycles_scooters">
        <route edges="south_osmena_0 south_osmena_1 south_osmena_2 east_recto_1 north_corrales_1 north_corrales_2" />
    </vehicle>
    <vehicle id="40_86" depart="1011.76" type="motorcycles_scooters">
        <route edges="west_recto_0 west_recto_1 north_roa_0 north_roa_1" />
    </vehicle>
    <vehicle id="40_87" depart="1023.53" type="motorcycles_scooters">
        <route edges="east_recto_0 east_recto_1 north_corrales_1 east_luna_2" />
    </vehicle>
    <vehicle id="40_88" depart="1035.29" type="motorcycles_scooters">
        <route edges="north_osmena_0 north_osmena_1 north_osmena_2 east_luna_0 south_roa_1 west_recto_2 south_osmena_3" />
    </vehicle>
    <vehicle id="40_89" depart="1047.06" type="motorcycles_scooters">
        <route edges="west_recto_0 west_recto_1 west_recto_2 west_recto_3" />
    </vehicle>
    <vehicle id="40_90" depart="1058.82" type="motorcycles_scooters">
        <route edges="west_recto_0 west_recto_1 west_recto_2 west_recto_3" />
    </vehicle>
    <vehicle id="40_91" depart="1070.59" type="motorcycles_scooters">
        <route edges="west_recto_0 west_recto_1 west_recto_2 west_recto_3" />
    </vehicle>
    <vehicle id="40_92" depart="1082.35" type="motorcycles_scooters">
        <route edges="south_osmena_0 south_osmena_1 south_osmena_2 south_osmena_3" />
    </vehicle>
    <vehicle id="40_93" depart="1094.12" type="motorcycles_scooters">
        <route edges="west_luna_0 west_luna_1 north_roa_1" />
    </vehicle>
    <vehicle id="40_94" depart="1105.88" type="motorcycles_scooters">
        <route edges="east_recto_0 south_osmena_3" />
    </vehicle>
    <vehicle id="40_95" depart="1117.65" type="motorcycles_scooters">
        <route edges="east_recto_0 east_recto_1 north_corrales_1 north_corrales_2" />
    </vehicle>
    <vehicle id="40_96" depart="1129.41" type="motorcycles_scooters">
        <route edges="east_florentino_0 north_osmena_2 north_osmena_3" />
    </vehicle>
    <vehicle id="40_97" depart="1141.18" type="motorcycles_scooters">
        <route edges="west_recto_0 west_recto_1 west_recto_2 west_recto_3" />
    </vehicle>
    <vehicle id="40_98" depart="1152.94" type="motorcycles_scooters">
        <route edges="east_florentino_0 north_osmena_2 north_osmena_3" />
    </vehicle>
    <vehicle id="40_99" depart="1164.71" type="motorcycles_scooters">
        <route edges="east_recto_0 east_recto_1 north_corrales_1 north_corrales_2" />
    </vehicle>
    <vehicle id="40_100" depart="1176.47" type="motorcycles_scooters">
        <route edges="east_florentino_0 north_osmena_2 north_osmena_3" />
    </vehicle>
    <vehicle id="40_101" depart="1188.24" type="motorcycles_scooters">
        <route edges="west_recto_0 west_recto_1 west_recto_2 north_osmena_1 north_osmena_2 north_osmena_3" />
    </vehicle>
    <vehicle id="40_102" depart="1200.00" type="motorcycles_scooters">
        <route edges="north_corrales_0 north_corrales_1 north_corrales_2" />
    </vehicle>
    <vehicle id="40_103" depart="1211.76" type="motorcycles_scooters">
        <route edges="east_recto_0 east_recto_1 east_recto_2" />
    </vehicle>
    <vehicle id="40_104" depart="1223.53" type="motorcycles_scooters">
        <route edges="south_corrales_0 south_corrales_1 west_recto_1 west_recto_2 west_recto_3" />
    </vehicle>
    <vehicle id="40_105" depart="1235.29" type="motorcycles_scooters">
        <route edges="east_recto_0 east_recto_1 east_recto_2" />
    </vehicle>
    <vehicle id="40_106" depart="1247.06" type="motorcycles_scooters">
        <route edges="west_recto_0 west_recto_1 north_roa_0 east_luna_1 south_corrales_1 east_recto_2" />
    </vehicle>
    <vehicle id="40_107" depart="1258.82" type="motorcycles_scooters">
        <route edges="south_corrales_0 west_luna_1 north_roa_1" />
    </vehicle>
    <vehicle id="40_108" depart="1270.59" type="motorcycles_scooters">
        <route edges="east_recto_0 east_recto_1 east_recto_2" />
    </vehicle>
    <vehicle id="40_109" depart="1282.35" type="motorcycles_scooters">
        <route edges="west_recto_0 west_recto_1 west_recto_2 west_recto_3" />
    </vehicle>
    <vehicle id="40_110" depart="1294.12" type="motorcycles_scooters">
        <route edges="east_florentino_0 south_osmena_2 east_recto_1 north_corrales_1 north_corrales_2" />
    </vehicle>
    <vehicle id="40_111" depart="1305.88" type="motorcycles_scooters">
        <route edges="south_corrales_0 south_corrales_1 east_recto_2" />
    </vehicle>
    <vehicle id="40_112" depart="1317.65" type="motorcycles_scooters">
        <route edges="east_recto_0 east_recto_1 north_corrales_1 north_corrales_2" />
    </vehicle>
    <vehicle id="40_113" depart="1329.41" type="motorcycles_scooters">
        <route edges="east_recto_0 east_recto_1 east_recto_2" />
    </vehicle>
    <vehicle id="40_114" depart="1341.18" type="motorcycles_scooters">
        <route edges="south_osmena_0 south_osmena_1 south_osmena_2 east_recto_1 north_corrales_1 north_corrales_2" />
    </vehicle>
    <vehicle id="40_115" depart="1352.94" type="motorcycles_scooters">
        <route edges="east_recto_0 east_recto_1 east_recto_2" />
    </vehicle>
    <vehicle id="40_116" depart="1364.71" type="motorcycles_scooters">
        <route edges="west_recto_0 west_recto_1 west_recto_2 north_osmena_1 west_florentino_0" />
    </vehicle>
    <vehicle id="40_117" depart="1376.47" type="motorcycles_scooters">
        <route edges="west_recto_0 west_recto_1 west_recto_2 west_recto_3" />
    </vehicle>
    <vehicle id="40_118" depart="1388.24" type="motorcycles_scooters">
        <route edges="south_osmena_0 south_osmena_1 south_osmena_2 south_osmena_3" />
    </vehicle>
    <vehicle id="40_119" depart="1400.00" type="motorcycles_scooters">
        <route edges="east_florentino_0 north_osmena_2 north_osmena_3" />
    </vehicle>
    <vehicle id="40_120" depart="1411.76" type="motorcycles_scooters">
        <route edges="east_recto_0 east_recto_1 south_corrales_2" />
    </vehicle>
    <vehicle id="40_121" depart="1423.53" type="motorcycles_scooters">
        <route edges="north_osmena_0 north_osmena_1 north_osmena_2 north_osmena_3" />
    </vehicle>
    <vehicle id="40_122" depart="1435.29" type="motorcycles_scooters">
        <route edges="east_florentino_0 north_osmena_2 north_osmena_3" />
    </vehicle>
    <vehicle id="40_123" depart="1447.06" type="motorcycles_scooters">
        <route edges="east_recto_0 east_recto_1 east_recto_2" />
    </vehicle>
    <vehicle id="40_124" depart="1458.82" type="motorcycles_scooters">
        <route edges="west_recto_0 south_corrales_2" />
    </vehicle>
    <vehicle id="40_125" depart="1470.59" type="motorcycles_scooters">
        <route edges="north_osmena_0 north_osmena_1 north_osmena_2 east_luna_0 south_roa_1 west_recto_2 south_osmena_3" />
    </vehicle>
    <vehicle id="40_126" depart="1482.35" type="motorcycles_scooters">
        <route edges="west_recto_0 west_recto_1 west_recto_2 west_recto_3" />
    </vehicle>
    <vehicle id="40_127" depart="1494.12" type="motorcycles_scooters">
        <route edges="west_recto_0 west_recto_1 west_recto_2 west_recto_3" />
    </vehicle>
    <vehicle id="40_128" depart="1505.88" type="motorcycles_scooters">
        <route edges="north_corrales_0 west_recto_1 west_recto_2 north_osmena_1 north_osmena_2 north_osmena_3" />
    </vehicle>
    <vehicle id="40_129" depart="1517.65" type="motorcycles_scooters">
        <route edges="west_recto_0 west_recto_1 west_recto_2 west_recto_3" />
    </vehicle>
    <vehicle id="40_130" depart="1529.41" type="motorcycles_scooters">
        <route edges="east_recto_0 east_recto_1 east_recto_2" />
    </vehicle>
    <vehicle id="40_131" depart="1541.18" type="motorcycles_scooters">
        <route edges="west_recto_0 north_corrales_1 north_corrales_2" />
    </vehicle>
    <vehicle id="40_132" depart="1552.94" type="motorcycles_scooters">
        <route edges="west_recto_0 south_corrales_2" />
    </vehicle>
    <vehicle id="40_133" depart="1564.71" type="motorcycles_scooters">
        <route edges="south_roa_0 east_luna_1 east_luna_2" />
    </vehicle>
    <vehicle id="40_134" depart="1576.47" type="motorcycles_scooters">
        <route edges="west_luna_0 north_corrales_2" />
    </vehicle>
    <vehicle id="40_135" depart="1588.24" type="motorcycles_scooters">
        <route edges="west_recto_0 west_recto_1 west_recto_2 west_recto_3" />
    </vehicle>
    <vehicle id="40_136" depart="1600.00" type="motorcycles_scooters">
        <route edges="south_corrales_0 south_corrales_1 south_corrales_2" />
    </vehicle>
    <vehicle id="40_137" depart="1611.76" type="motorcycles_scooters">
        <route edges="east_recto_0 east_recto_1 south_corrales_2" />
    </vehicle>
    <vehicle id="40_138" depart="1623.53" type="motorcycles_scooters">
        <route edges="west_recto_0 west_recto_1 north_roa_0 north_roa_1" />
    </vehicle>
    <vehicle id="40_139" depart="1635.29" type="motorcycles_scooters">
        <route edges="south_corrales_0 west_luna_1 north_roa_1" />
    </vehicle>
    <vehicle id="40_140" depart="1647.06" type="motorcycles_scooters">
        <route edges="south_corrales_0 south_corrales_1 east_recto_2" />
    </vehicle>
    <vehicle id="40_141" depart="1658.82" type="motorcycles_scooters">
        <route edges="south_osmena_0 south_osmena_1 south_osmena_2 south_osmena_3" />
    </vehicle>
    <vehicle id="40_142" depart="1670.59" type="motorcycles_scooters">
        <route edges="north_corrales_0 west_recto_1 west_recto_2 south_osmena_3" />
    </vehicle>
    <vehicle id="40_143" depart="1682.35" type="motorcycles_scooters">
        <route edges="south_osmena_0 south_osmena_1 south_osmena_2 south_osmena_3" />
    </vehicle>
    <vehicle id="40_144" depart="1694.12" type="motorcycles_scooters">
        <route edges="east_florentino_0 south_osmena_2 west_recto_3" />
    </vehicle>
    <vehicle id="40_145" depart="1705.88" type="motorcycles_scooters">
        <route edges="west_recto_0 west_recto_1 north_roa_0 north_roa_1" />
    </vehicle>
    <vehicle id="40_146" depart="1717.65" type="motorcycles_scooters">
        <route edges="east_florentino_0 north_osmena_2 north_osmena_3" />
    </vehicle>
    <vehicle id="40_147" depart="1729.41" type="motorcycles_scooters">
        <route edges="west_recto_0 west_recto_1 west_recto_2 west_recto_3" />
    </vehicle>
    <vehicle id="40_148" depart="1741.18" type="motorcycles_scooters">
        <route edges="east_florentino_0 north_osmena_2 north_osmena_3" />
    </vehicle>
    <vehicle id="40_149" depart="1752.94" type="motorcycles_scooters">
        <route edges="east_recto_0 east_recto_1 south_corrales_2" />
    </vehicle>
    <vehicle id="40_150" depart="1764.71" type="motorcycles_scooters">
        <route edges="west_recto_0 west_recto_1 west_recto_2 north_osmena_1 north_osmena_2 north_osmena_3" />
    </vehicle>
    <vehicle id="40_151" depart="1776.47" type="motorcycles_scooters">
        <route edges="south_corrales_0 south_corrales_1 west_recto_1 west_recto_2 south_osmena_3" />
    </vehicle>
    <vehicle id="40_152" depart="1788.24" type="motorcycles_scooters">
        <route edges="south_corrales_0 south_corrales_1 east_recto_2" />
    </vehicle>
    <vehicle id="40_153" depart="1800.00" type="motorcycles_scooters">
        <route edges="west_recto_0 south_corrales_2" />
    </vehicle>
    <vehicle id="40_154" depart="1811.76" type="motorcycles_scooters">
        <route edges="north_osmena_0 north_osmena_1 north_osmena_2 east_luna_0 south_roa_1 west_recto_2 south_osmena_3" />
    </vehicle>
    <vehicle id="40_155" depart="1823.53" type="motorcycles_scooters">
        <route edges="south_corrales_0 south_corrales_1 west_recto_1 west_recto_2 south_osmena_3" />
    </vehicle>
    <vehicle id="40_156" depart="1835.29" type="motorcycles_scooters">
        <route edges="east_recto_0 east_recto_1 east_recto_2" />
    </vehicle>
    <vehicle id="40_157" depart="1847.06" type="motorcycles_scooters">
        <route edges="north_corrales_0 north_corrales_1 north_corrales_2" />
    </vehicle>
    <vehicle id="40_158" depart="1858.82" type="motorcycles_scooters">
        <route edges="west_recto_0 west_recto_1 west_recto_2 west_recto_3" />
    </vehicle>
    <vehicle id="40_159" depart="1870.59" type="motorcycles_scooters">
        <route edges="north_corrales_0 north_corrales_1 north_corrales_2" />
    </vehicle>
    <vehicle id="40_160" depart="1882.35" type="motorcycles_scooters">
        <route edges="west_luna_0 west_luna_1 west_luna_2 south_osmena_1 west_florentino_0" />
    </vehicle>
    <vehicle id="40_161" depart="1894.12" type="motorcycles_scooters">
        <route edges="south_corrales_0 south_corrales_1 east_recto_2" />
    </vehicle>
    <vehicle id="40_162" depart="1905.88" type="motorcycles_scooters">
        <route edges="east_florentino_0 north_osmena_2 north_osmena_3" />
    </vehicle>
    <vehicle id="40_163" depart="1917.65" type="motorcycles_scooters">
        <route edges="west_recto_0 west_recto_1 west_recto_2 north_osmena_1 north_osmena_2 north_osmena_3" />
    </vehicle>
    <vehicle id="40_164" depart="1929.41" type="motorcycles_scooters">
        <route edges="west_recto_0 west_recto_1 west_recto_2 west_recto_3" />
    </vehicle>
    <vehicle id="40_165" depart="1941.18" type="motorcycles_scooters">
        <route edges="south_roa_0 south_roa_1 west_recto_2 north_osmena_1 north_osmena_2 east_luna_0 north_roa_1" />
    </vehicle>
    <vehicle id="40_166" depart="1952.94" type="motorcycles_scooters">
        <route edges="west_recto_0 west_recto_1 west_recto_2 west_recto_3" />
    </vehicle>
    <vehicle id="40_167" depart="1964.71" type="motorcycles_scooters">
        <route edges="east_recto_0 north_osmena_1 west_florentino_0" />
    </vehicle>
    <vehicle id="40_168" depart="1976.47" type="motorcycles_scooters">
        <route edges="south_corrales_0 west_luna_1 west_luna_2 south_osmena_1 south_osmena_2 east_recto_1 north_corrales_1 north_corrales_2" />
    </vehicle>
    <vehicle id="40_169" depart="1988.24" type="motorcycles_scooters">
        <route edges="west_recto_0 north_corrales_1 north_corrales_2" />
    </vehicle>
    <vehicle id="40_170" depart="2000.00" type="motorcycles_scooters">
        <route edges="west_recto_0 north_corrales_1 north_corrales_2" />
    </vehicle>
    <vehicle id="40_171" depart="2011.76" type="motorcycles_scooters">
        <route edges="east_recto_0 east_recto_1 north_corrales_1 north_corrales_2" />
    </vehicle>
    <vehicle id="40_172" depart="2023.53" type="motorcycles_scooters">
        <route edges="east_recto_0 east_recto_1 east_recto_2" />
    </vehicle>
    <vehicle id="40_173" depart="2035.29" type="motorcycles_scooters">
        <route edges="east_recto_0 east_recto_1 east_recto_2" />
    </vehicle>
    <vehicle id="40_174" depart="2047.06" type="motorcycles_scooters">
        <route edges="south_corrales_0 south_corrales_1 south_corrales_2" />
    </vehicle>
    <vehicle id="40_175" depart="2058.82" type="motorcycles_scooters">
        <route edges="north_corrales_0 west_recto_1 west_recto_2 north_osmena_1 west_florentino_0" />
    </vehicle>
    <vehicle id="40_176" depart="2070.59" type="motorcycles_scooters">