<routes xmlns:xsi="http://www.w3.org/2001/XMLSchema-instance" xsi:noNamespaceSchemaLocation="http://sumo.dlr.de/xsd/routes_file.xsd">
<vType id="motorela" accel="2.0" decel="4.5" sigma="0.5" length="2.0" minGap="0.5" maxSpeed="30.0" guiShape="bicycle" color="255,0,0" />

    <vehicle id="50_0" depart="0.00" type="motorela">
        <route edges="east_florentino_0 north_osmena_2 north_osmena_3" />
    </vehicle>
    <vehicle id="50_1" depart="46.15" type="motorela">
        <route edges="north_osmena_0 east_recto_1 east_recto_2" />
    </vehicle>
    <vehicle id="50_2" depart="92.31" type="motorela">
        <route edges="south_corrales_0 south_corrales_1 east_recto_2" />
    </vehicle>
    <vehicle id="50_3" depart="138.46" type="motorela">
        <route edges="north_osmena_0 east_recto_1 east_recto_2" />
    </vehicle>
    <vehicle id="50_4" depart="184.62" type="motorela">
        <route edges="west_luna_0 north_corrales_2" />
    </vehicle>
    <vehicle id="50_5" depart="230.77" type="motorela">
        <route edges="south_osmena_0 south_osmena_1 south_osmena_2 south_osmena_3" />
    </vehicle>
    <vehicle id="50_6" depart="276.92" type="motorela">
        <route edges="south_corrales_0 south_corrales_1 east_recto_2" />
    </vehicle>
    <vehicle id="50_7" depart="323.08" type="motorela">
        <route edges="south_roa_0 south_roa_1 west_recto_2 north_osmena_1 north_osmena_2 east_luna_0 north_roa_1" />
    </vehicle>
    <vehicle id="50_8" depart="369.23" type="motorela">
        <route edges="south_corrales_0 west_luna_1 west_luna_2 south_osmena_1 south_osmena_2 east_recto_1 north_corrales_1 north_corrales_2" />
    </vehicle>
    <vehicle id="50_9" depart="415.38" type="motorela">
        <route edges="south_corrales_0 south_corrales_1 east_recto_2" />
    </vehicle>
    <vehicle id="50_10" depart="461.54" type="motorela">
        <route edges="south_osmena_0 south_osmena_1 south_osmena_2 east_recto_1 north_corrales_1 north_corrales_2" />
    </vehicle>
    <vehicle id="50_11" depart="507.69" type="motorela">
        <route edges="east_recto_0 east_recto_1 north_corrales_1 north_corrales_2" />
    </vehicle>
    <vehicle id="50_12" depart="553.85" type="motorela">
        <route edges="north_osmena_0 east_recto_1 north_corrales_1 north_corrales_2" />
    </vehicle>
    <vehicle id="50_13" depart="600.00" type="motorela">
        <route edges="south_corrales_0 south_corrales_1 east_recto_2" />
    </vehicle>
    <vehicle id="50_14" depart="646.15" type="motorela">
        <route edges="west_luna_0 west_luna_1 south_roa_1 west_recto_2 west_recto_3" />
    </vehicle>
    <vehicle id="50_15" depart="692.31" type="motorela">
        <route edges="north_osmena_0 east_recto_1 east_recto_2" />
    </vehicle>
    <vehicle id="50_16" depart="738.46" type="motorela">
        <route edges="east_florentino_0 south_osmena_2 south_osmena_3" />
    </vehicle>
    <vehicle id="50_17" depart="784.62" type="motorela">
        <route edges="east_florentino_0 north_osmena_2 north_osmena_3" />
    </vehicle>
    <vehicle id="50_18" depart="830.77" type="motorela">
        <route edges="south_corrales_0 south_corrales_1 south_corrales_2" />
    </vehicle>
    <vehicle id="50_19" depart="876.92" type="motorela">
        <route edges="south_corrales_0 south_corrales_1 east_recto_2" />
    </vehicle>
    <vehicle id="50_20" depart="923.08" type="motorela">
        <route edges="east_recto_0 east_recto_1 north_corrales_1 north_corrales_2" />
    </vehicle>
    <vehicle id="50_21" depart="969.23" type="motorela">
        <route edges="east_florentino_0 north_osmena_2 north_osmena_3" />
    </vehicle>
    <vehicle id="50_22" depart="1015.38" type="motorela">
        <route edges="east_florentino_0 north_osmena_2 north_osmena_3" />
    </vehicle>
    <vehicle id="50_23" depart="1061.54" type="motorela">
        <route edges="west_luna_0 west_luna_1 south_roa_1 west_recto_2 south_osmena_3" />
    </vehicle>
    <vehicle id="50_24" depart="1107.69" type="motorela">
        <route edges="east_florentino_0 north_osmena_2 north_osmena_3" />
    </vehicle>
    <vehicle id="50_25" depart="1153.85" type="motorela">
        <route edges="east_recto_0 east_recto_1 east_recto_2" />
    </vehicle>
    <vehicle id="50_26" depart="1200.00" type="motorela">
        <route edges="south_corrales_0 south_corrales_1 west_recto_1 west_recto_2 south_osmena_3" />
    </vehicle>
    <vehicle id="50_27" depart="1246.15" type="motorela">
        <route edges="south_corrales_0 south_corrales_1 east_recto_2" />
    </vehicle>
    <vehicle id="50_28" depart="1292.31" type="motorela">
        <route edges="north_osmena_0 north_osmena_1 west_florentino_0" />
    </vehicle>
    <vehicle id="50_29" depart="1338.46" type="motorela">
        <route edges="north_osmena_0 east_recto_1 east_recto_2" />
    </vehicle>
    <vehicle id="50_30" depart="1384.62" type="motorela">
        <route edges="north_corrales_0 north_corrales_1 north_corrales_2" />
    </vehicle>
    <vehicle id="50_31" depart="1430.77" type="motorela">
        <route edges="south_roa_0 south_roa_1 west_recto_2 west_recto_3" />
    </vehicle>
    <vehicle id="50_32" depart="1476.92" type="motorela">
        <route edges="west_recto_0 west_recto_1 north_roa_0 east_luna_1 south_corrales_1 east_recto_2" />
    </vehicle>
    <vehicle id="50_33" depart="1523.08" type="motorela">
        <route edges="west_luna_0 north_corrales_2" />
    </vehicle>
    <vehicle id="50_34" depart="1569.23" type="motorela">
        <route edges="north_corrales_0 north_corrales_1 north_corrales_2" />
    </vehicle>
    <vehicle id="50_35" depart="1615.38" type="motorela">
        <route edges="south_osmena_0 east_luna_0 north_roa_1 south_roa_0 west_luna_2 north_osmena_3" />
    </vehicle>
    <vehicle id="50_36" depart="1661.54" type="motorela">
        <route edges="east_recto_0 east_recto_1 north_corrales_1 north_corrales_2" />
    </vehicle>
    <vehicle id="50_37" depart="1707.69" type="motorela">
        <route edges="west_luna_0 north_corrales_2" />
    </vehicle>
    <vehicle id="50_38" depart="1753.85" type="motorela">
        <route edges="east_florentino_0 north_osmena_2 north_osmena_3" />
    </vehicle>
    <vehicle id="50_39" depart="1800.00" type="motorela">
        <route edges="north_osmena_0 east_recto_1 north_corrales_1 north_corrales_2" />
    </vehicle>
    <vehicle id="50_40" depart="1846.15" type="motorela">
        <route edges="east_recto_0 east_recto_1 south_corrales_2" />
    </vehicle>
    <vehicle id="50_41" depart="1892.31" type="motorela">
        <route edges="south_corrales_0 south_corrales_1 east_recto_2" />
    </vehicle>
    <vehicle id="50_42" depart="1938.46" type="motorela">
        <route edges="south_osmena_0 south_osmena_1 south_osmena_2 west_recto_3" />
    </vehicle>
    <vehicle id="50_43" depart="1984.62" type="motorela">
        <route edges="east_recto_0 north_osmena_1 north_osmena_2 east_luna_0 south_roa_1 west_recto_2 west_recto_3" />
    </vehicle>
    <vehicle id="50_44" depart="2030.77" type="motorela">
        <route edges="west_luna_0 north_corrales_2" />
    </vehicle>
    <vehicle id="50_45" depart="2076.92" type="motorela">
        <route edges="south_corrales_0 south_corrales_1 east_recto_2" />
    </vehicle>
    <vehicle id="50_46" depart="2123.08" type="motorela">
        <route edges="east_recto_0 east_recto_1 south_corrales_2" />
    </vehicle>
    <vehicle id="50_47" depart="2169.23" type="motorela">
        <route edges="south_corrales_0 south_corrales_1 east_recto_2" />
    </vehicle>
    <vehicle id="50_48" depart="2215.38" type="motorela">
        <route edges="south_corrales_0 south_corrales_1 south_corrales_2" />
    </vehicle>
    <vehicle id="50_49" depart="2261.54" type="motorela">
        <route edges="west_recto_0 north_corrales_1 north_corrales_2" />
    </vehicle>
    <vehicle id="50_50" depart="2307.69" type="motorela">
        <route edges="west_recto_0 south_corrales_2" />
    </vehicle>
    <vehicle id="50_51" depart="2353.85" type="motorela">
        <route edges="east_recto_0 east_recto_1 north_corrales_1 north_corrales_2" />
    </vehicle>
    <vehicle id="50_52" depart="2400.00" type="motorela">
        <route edges="north_osmena_0 east_recto_1 north_corrales_1 north_corrales_2" />
    </vehicle>
    <vehicle id="50_53" depart="2446.15" type="motorela">
        <route edges="south_corrales_0 south_corrales_1 south_corrales_2" />
    </vehicle>
    <vehicle id="50_54" depart="2492.31" type="motorela">
        <route edges="west_recto_0 west_recto_1 north_roa_0 north_roa_1" />
    </vehicle>
    <vehicle id="50_55" depart="2538.46" type="motorela">
        <route edges="north_osmena_0 north_osmena_1 west_florentino_0" />
    </vehicle>
    <vehicle id="50_56" depart="2584.62" type="motorela">
        <route edges="east_recto_0 east_recto_1 east_recto_2" />
    </vehicle>
    <vehicle id="50_57" depart="2630.77" type="motorela">
        <route edges="east_florentino_0 north_osmena_2 north_osmena_3" />
    </vehicle>
    <vehicle id="50_58" depart="2676.92" type="motorela">
        <route edges="north_osmena_0 east_recto_1 north_corrales_1 north_corrales_2" />
    </vehicle>
    <vehicle id="50_59" depart="2723.08" type="motorela">
        <route edges="south_osmena_0 south_osmena_1 west_florentino_0" />
    </vehicle>
    <vehicle id="50_60" depart="2769.23" type="motorela">
        <route edges="north_corrales_0 north_corrales_1 north_corrales_2" />
    </vehicle>
    <vehicle id="50_61" depart="2815.38" type="motorela">
        <route edges="south_corrales_0 south_corrales_1 east_recto_2" />
    </vehicle>
    <vehicle id="50_62" depart="2861.54" type="motorela">
        <route edges="east_recto_0 east_recto_1 south_corrales_2" />
    </vehicle>
    <vehicle id="50_63" depart="2907.69" type="motorela">
        <route edges="west_luna_0 west_luna_1 north_roa_1 south_roa_0 east_luna_1 south_corrales_1 east_recto_2" />
    </vehicle>
    <vehicle id="50_64" depart="2953.85" type="motorela">
        <route edges="north_corrales_0 north_corrales_1 north_corrales_2" />
    </vehicle>
    <vehicle id="50_65" depart="3000.00" type="motorela">
        <route edges="south_corrales_0 south_corrales_1 east_recto_2" />
    </vehicle>
    <vehicle id="50_66" depart="3046.15" type="motorela">
        <route edges="north_corrales_0 west_recto_1 west_recto_2 north_osmena_1 north_osmena_2 north_osmena_3" />
    </vehicle>
    <vehicle id="50_67" depart="3092.31" type="motorela">
        <route edges="south_roa_0 south_roa_1 west_recto_2 south_osmena_3" />
    </vehicle>
    <vehicle id="50_68" depart="3138.46" type="motorela">
        <route edges="south_corrales_0 south_corrales_1 east_recto_2" />
    </vehicle>
    <vehicle id="50_69" depart="3184.62" type="motorela">
        <route edges="west_recto_0 south_corrales_2" />
    </vehicle>
    <vehicle id="50_70" depart="3230.77" type="motorela">
        <route edges="east_recto_0 east_recto_1 south_corrales_2" />
    </vehicle>
    <vehicle id="50_71" depart="3276.92" type="motorela">
        <route edges="west_recto_0 west_recto_1 north_roa_0 north_roa_1" />
    </vehicle>
    <vehicle id="50_72" depart="3323.08" type="motorela">
        <route edges="east_recto_0 east_recto_1 east_recto_2" />
    </vehicle>
    <vehicle id="50_73" depart="3369.23" type="motorela">
        <route edges="north_corrales_0 north_corrales_1 east_luna_2" />
    </vehicle>
    <vehicle id="50_74" depart="3415.38" type="motorela">
        <route edges="west_luna_0 west_luna_1 north_roa_1 south_roa_0 east_luna_1 south_corrales_1 south_corrales_2" />
    </vehicle>
    <vehicle id="50_75" depart="3461.54" type="motorela">
        <route edges="west_recto_0 north_corrales_1 east_luna_2" />
    </vehicle>
    <vehicle id="50_76" depart="3507.69" type="motorela">
        <route edges="north_osmena_0 east_recto_1 north_corrales_1 north_corrales_2" />
    </vehicle>
    <vehicle id="50_77" depart="3553.85" type="motorela">
        <route edges="south_corrales_0 south_corrales_1 east_recto_2" />
    </vehicle>

    <vehicle id="53600_0" depart="3600.00" type="motorela">
        <route edges="east_florentino_0 north_osmena_2 north_osmena_3" />
    </vehicle>
    <vehicle id="53600_1" depart="3629.51" type="motorela">
        <route edges="east_florentino_0 north_osmena_2 east_luna_0 east_luna_1 east_luna_2" />
    </vehicle>
    <vehicle id="53600_2" depart="3659.02" type="motorela">
        <route edges="west_recto_0 south_corrales_2" />
    </vehicle>
    <vehicle id="53600_3" depart="3688.52" type="motorela">
        <route edges="east_florentino_0 south_osmena_2 east_recto_1 south_corrales_2" />
    </vehicle>
    <vehicle id="53600_4" depart="3718.03" type="motorela">
        <route edges="south_corrales_0 south_corrales_1 east_recto_2" />
    </vehicle>
    <vehicle id="53600_5" depart="3747.54" type="motorela">
        <route edges="south_corrales_0 south_corrales_1 west_recto_1 west_recto_2 south_osmena_3" />
    </vehicle>
    <vehicle id="53600_6" depart="3777.05" type="motorela">
        <route edges="east_florentino_0 north_osmena_2 north_osmena_3" />
    </vehicle>
    <vehicle id="53600_7" depart="3806.56" type="motorela">
        <route edges="south_corrales_0 south_corrales_1 east_recto_2" />
    </vehicle>
    <vehicle id="53600_8" depart="3836.07" type="motorela">
        <route edges="south_corrales_0 south_corrales_1 south_corrales_2" />
    </vehicle>
    <vehicle id="53600_9" depart="3865.57" type="motorela">
        <route edges="north_osmena_0 west_recto_3" />
    </vehicle>
    <vehicle id="53600_10" depart="3895.08" type="motorela">
        <route edges="east_recto_0 south_osmena_3" />
    </vehicle>
    <vehicle id="53600_11" depart="3924.59" type="motorela">
        <route edges="north_osmena_0 east_recto_1 north_corrales_1 north_corrales_2" />
    </vehicle>
    <vehicle id="53600_12" depart="3954.10" type="motorela">
        <route edges="east_recto_0 south_osmena_3" />
    </vehicle>
    <vehicle id="53600_13" depart="3983.61" type="motorela">
        <route edges="west_recto_0 north_corrales_1 north_corrales_2" />
    </vehicle>
    <vehicle id="53600_14" depart="4013.11" type="motorela">
        <route edges="east_recto_0 east_recto_1 south_corrales_2" />
    </vehicle>
    <vehicle id="53600_15" depart="4042.62" type="motorela">
        <route edges="east_recto_0 east_recto_1 north_corrales_1 north_corrales_2" />
    </vehicle>
    <vehicle id="53600_16" depart="4072.13" type="motorela">
        <route edges="north_osmena_0 east_recto_1 north_corrales_1 north_corrales_2" />
    </vehicle>
    <vehicle id="53600_17" depart="4101.64" type="motorela">
        <route edges="south_corrales_0 south_corrales_1 east_recto_2" />
    </vehicle>
    <vehicle id="53600_18" depart="4131.15" type="motorela">
        <route edges="west_luna_0 north_corrales_2" />
    </vehicle>
    <vehicle id="53600_19" depart="4160.66" type="motorela">
        <route edges="south_corrales_0 south_corrales_1 east_recto_2" />
    </vehicle>
    <vehicle id="53600_20" depart="4190.16" type="motorela">
        <route edges="east_recto_0 east_recto_1 north_corrales_1 north_corrales_2" />
    </vehicle>
    <vehicle id="53600_21" depart="4219.67" type="motorela">
        <route edges="north_corrales_0 north_corrales_1 north_corrales_2" />
    </vehicle>
    <vehicle id="53600_22" depart="4249.18" type="motorela">
        <route edges="south_osmena_0 south_osmena_1 south_osmena_2 east_recto_1 east_recto_2" />
    </vehicle>
    <vehicle id="53600_23" depart="4278.69" type="motorela">
        <route edges="east_recto_0 east_recto_1 south_corrales_2" />
    </vehicle>
    <vehicle id="53600_24" depart="4308.20" type="motorela">
        <route edges="north_osmena_0 east_recto_1 north_corrales_1 north_corrales_2" />
    </vehicle>
    <vehicle id="53600_25" depart="4337.70" type="motorela">
        <route edges="north_osmena_0 north_osmena_1 north_osmena_2 north_osmena_3" />
    </vehicle>
    <vehicle id="53600_26" depart="4367.21" type="motorela">
        <route edges="south_corrales_0 south_corrales_1 south_corrales_2" />
    </vehicle>
    <vehicle id="53600_27" depart="4396.72" type="motorela">
        <route edges="north_corrales_0 north_corrales_1 north_corrales_2" />
    </vehicle>
    <vehicle id="53600_28" depart="4426.23" type="motorela">
        <route edges="west_luna_0 west_luna_1 south_roa_1 west_recto_2 south_osmena_3" />
    </vehicle>
    <vehicle id="53600_29" depart="4455.74" type="motorela">
        <route edges="east_recto_0 north_osmena_1 north_osmena_2 north_osmena_3" />
    </vehicle>
    <vehicle id="53600_30" depart="4485.25" type="motorela">
        <route edges="north_corrales_0 north_corrales_1 north_corrales_2" />
    </vehicle>
    <vehicle id="53600_31" depart="4514.75" type="motorela">
        <route edges="north_osmena_0 east_recto_1 east_recto_2" />
    </vehicle>
    <vehicle id="53600_32" depart="4544.26" type="motorela">
        <route edges="east_recto_0 east_recto_1 north_corrales_1 north_corrales_2" />
    </vehicle>
    <vehicle id="53600_33" depart="4573.77" type="motorela">
        <route edges="west_recto_0 north_corrales_1 north_corrales_2" />
    </vehicle>
    <vehicle id="53600_34" depart="4603.28" type="motorela">
        <route edges="south_corrales_0 south_corrales_1 east_recto_2" />
    </vehicle>
    <vehicle id="53600_35" depart="4632.79" type="motorela">
        <route edges="east_recto_0 east_recto_1 east_recto_2" />
    </vehicle>
    <vehicle id="53600_36" depart="4662.30" type="motorela">
        <route edges="east_recto_0 east_recto_1 north_corrales_1 north_corrales_2" />
    </vehicle>
    <vehicle id="53600_37" depart="4691.80" type="motorela">
        <route edges="east_recto_0 east_recto_1 north_corrales_1 east_luna_2" />
    </vehicle>
    <vehicle id="53600_38" depart="4721.31" type="motorela">
        <route edges="east_florentino_0 south_osmena_2 south_osmena_3" />
    </vehicle>
    <vehicle id="53600_39" depart="4750.82" type="motorela">
        <route edges="east_recto_0 east_recto_1 east_recto_2" />
    </vehicle>
    <vehicle id="53600_40" depart="4780.33" type="motorela">
        <route edges="north_osmena_0 east_recto_1 east_recto_2" />
    </vehicle>
    <vehicle id="53600_41" depart="4809.84" type="motorela">
        <route edges="north_osmena_0 east_recto_1 north_corrales_1 north_corrales_2" />
    </vehicle>
    <vehicle id="53600_42" depart="4839.34" type="motorela">
        <route edges="north_osmena_0 east_recto_1 east_recto_2" />
    </vehicle>
    <vehicle id="53600_43" depart="4868.85" type="motorela">
        <route edges="east_florentino_0 north_osmena_2 north_osmena_3" />
    </vehicle>
    <vehicle id="53600_44" depart="4898.36" type="motorela">
        <route edges="south_corrales_0 south_corrales_1 east_recto_2" />
    </vehicle>
    <vehicle id="53600_45" depart="4927.87" type="motorela">
        <route edges="north_corrales_0 north_corrales_1 north_corrales_2" />
    </vehicle>
    <vehicle id="53600_46" depart="4957.38" type="motorela">
        <route edges="east_recto_0 east_recto_1 east_recto_2" />
    </vehicle>
    <vehicle id="53600_47" depart="4986.89" type="motorela">
        <route edges="west_luna_0 north_corrales_2" />
    </vehicle>
    <vehicle id="53600_48" depart="5016.39" type="motorela">
        <route edges="north_corrales_0 north_corrales_1 north_corrales_2" />
    </vehicle>
    <vehicle id="53600_49" depart="5045.90" type="motorela">
        <route edges="east_florentino_0 south_osmena_2 east_recto_1 south_corrales_2" />
    </vehicle>
    <vehicle id="53600_50" depart="5075.41" type="motorela">
        <route edges="north_corrales_0 north_corrales_1 north_corrales_2" />
    </vehicle>
    <vehicle id="53600_51" depart="5104.92" type="motorela">
        <route edges="north_osmena_0 east_recto_1 north_corrales_1 north_corrales_2" />
    </vehicle>
    <vehicle id="53600_52" depart="5134.43" type="motorela">
        <route edges="west_luna_0 north_corrales_2" />
    </vehicle>
    <vehicle id="53600_53" depart="5163.93" type="motorela">
        <route edges="west_luna_0 west_luna_1 north_roa_1" />
    </vehicle>
    <vehicle id="53600_54" depart="5193.44" type="motorela">
        <route edges="south_osmena_0 south_osmena_1 west_florentino_0" />
    </vehicle>
    <vehicle id="53600_55" depart="5222.95" type="motorela">
        <route edges="north_osmena_0 north_osmena_1 north_osmena_2 north_osmena_3" />
    </vehicle>
    <vehicle id="53600_56" depart="5252.46" type="motorela">
        <route edges="south_corrales_0 south_corrales_1 east_recto_2" />
    </vehicle>
    <vehicle id="53600_57" depart="5281.97" type="motorela">
        <route edges="south_corrales_0 south_corrales_1 south_corrales_2" />
    </vehicle>
    <vehicle id="53600_58" depart="5311.48" type="motorela">
        <route edges="west_recto_0 west_recto_1 north_roa_0 east_luna_1 south_corrales_1 east_recto_2" />
    </vehicle>
    <vehicle id="53600_59" depart="5340.98" type="motorela">
        <route edges="south_roa_0 east_luna_1 south_corrales_1 south_corrales_2" />
    </vehicle>
    <vehicle id="53600_60" depart="5370.49" type="motorela">
        <route edges="south_osmena_0 south_osmena_1 south_osmena_2 south_osmena_3" />
    </vehicle>
    <vehicle id="53600_61" depart="5400.00" type="motorela">
        <route edges="east_recto_0 east_recto_1 east_recto_2" />
    </vehicle>
    <vehicle id="53600_62" depart="5429.51" type="motorela">
        <route edges="south_roa_0 south_roa_1 west_recto_2 north_osmena_1 north_osmena_2 east_luna_0 north_roa_1" />
    </vehicle>
    <vehicle id="53600_63" depart="5459.02" type="motorela">
        <route edges="west_recto_0 west_recto_1 west_recto_2 north_osmena_1 north_osmena_2 north_osmena_3" />
    </vehicle>
    <vehicle id="53600_64" depart="5488.52" type="motorela">
        <route edges="north_osmena_0 north_osmena_1 west_florentino_0" />
    </vehicle>
    <vehicle id="53600_65" depart="5518.03" type="motorela">
        <route edges="north_corrales_0 north_corrales_1 north_corrales_2" />
    </vehicle>
    <vehicle id="53600_66" depart="5547.54" type="motorela">
        <route edges="west_recto_0 north_corrales_1 north_corrales_2" />
    </vehicle>
    <vehicle id="53600_67" depart="5577.05" type="motorela">
        <route edges="south_corrales_0 south_corrales_1 south_corrales_2" />
    </vehicle>
    <vehicle id="53600_68" depart="5606.56" type="motorela">
        <route edges="west_luna_0 west_luna_1 north_roa_1 south_roa_0 east_luna_1 south_corrales_1 south_corrales_2" />
    </vehicle>
    <vehicle id="53600_69" depart="5636.07" type="motorela">
        <route edges="south_corrales_0 south_corrales_1 east_recto_2" />
    </vehicle>
    <vehicle id="53600_70" depart="5665.57" type="motorela">
        <route edges="north_osmena_0 east_recto_1 north_corrales_1 east_luna_2" />
    </vehicle>
    <vehicle id="53600_71" depart="5695.08" type="motorela">
        <route edges="west_luna_0 north_corrales_2" />
    </vehicle>
    <vehicle id="53600_72" depart="5724.59" type="motorela">
        <route edges="south_corrales_0 south_corrales_1 east_recto_2" />
    </vehicle>
    <vehicle id="53600_73" depart="5754.10" type="motorela">
        <route edges="south_corrales_0 south_corrales_1 south_corrales_2" />
    </vehicle>
    <vehicle id="53600_74" depart="5783.61" type="motorela">
        <route edges="south_osmena_0 south_osmena_1 south_osmena_2 south_osmena_3" />
    </vehicle>
    <vehicle id="53600_75" depart="5813.11" type="motorela">
        <route edges="west_luna_0 north_corrales_2" />
    </vehicle>
    <vehicle id="53600_76" depart="5842.62" type="motorela">
        <route edges="north_osmena_0 west_recto_3" />
    </vehicle>
    <vehicle id="53600_77" depart="5872.13" type="motorela">
        <route edges="north_osmena_0 east_recto_1 east_recto_2" />
    </vehicle>
    <vehicle id="53600_78" depart="5901.64" type="motorela">
        <route edges="west_luna_0 north_corrales_2" />
    </vehicle>
    <vehicle id="53600_79" depart="5931.15" type="motorela">
        <route edges="south_osmena_0 east_luna_0 north_roa_1 south_roa_0 west_luna_2 north_osmena_3" />
    </vehicle>
    <vehicle id="53600_80" depart="5960.66" type="motorela">
        <route edges="east_recto_0 east_recto_1 east_recto_2" />
    </vehicle>
    <vehicle id="53600_81" depart="5990.16" type="motorela">
        <route edges="south_corrales_0 south_corrales_1 east_recto_2" />
    </vehicle>
    <vehicle id="53600_82" depart="6019.67" type="motorela">
        <route edges="north_corrales_0 west_recto_1 west_recto_2 west_recto_3" />
    </vehicle>
    <vehicle id="53600_83" depart="6049.18" type="motorela">
        <route edges="west_luna_0 north_corrales_2" />
    </vehicle>
    <vehicle id="53600_84" depart="6078.69" type="motorela">
        <route edges="west_luna_0 north_corrales_2" />
    </vehicle>
    <vehicle id="53600_85" depart="6108.20" type="motorela">
        <route edges="south_osmena_0 south_osmena_1 south_osmena_2 west_recto_3" />
    </vehicle>
    <vehicle id="53600_86" depart="6137.70" type="motorela">
        <route edges="east_recto_0 east_recto_1 north_corrales_1 north_corrales_2" />
    </vehicle>
    <vehicle id="53600_87" depart="6167.21" type="motorela">
        <route edges="east_recto_0 east_recto_1 south_corrales_2" />
    </vehicle>
    <vehicle id="53600_88" depart="6196.72" type="motorela">
        <route edges="south_corrales_0 south_corrales_1 east_recto_2" />
    </vehicle>
    <vehicle id="53600_89" depart="6226.23" type="motorela">
        <route edges="south_corrales_0 south_corrales_1 east_recto_2" />
    </vehicle>
    <vehicle id="53600_90" depart="6255.74" type="motorela">
        <route edges="south_corrales_0 south_corrales_1 east_recto_2" />
    </vehicle>
    <vehicle id="53600_91" depart="6285.25" type="motorela">
        <route edges="east_recto_0 east_recto_1 east_recto_2" />
    </vehicle>
    <vehicle id="53600_92" depart="6314.75" type="motorela">
        <route edges="west_recto_0 north_corrales_1 north_corrales_2" />
    </vehicle>
    <vehicle id="53600_93" depart="6344.26" type="motorela">
        <route edges="west_luna_0 north_corrales_2" />
    </vehicle>
    <vehicle id="53600_94" depart="6373.77" type="motorela">
        <route edges="north_osmena_0 north_osmena_1 north_osmena_2 north_osmena_3" />
    </vehicle>
    <vehicle id="53600_95" depart="6403.28" type="motorela">
        <route edges="south_roa_0 south_roa_1 west_recto_2 south_osmena_3" />
    </vehicle>
    <vehicle id="53600_96" depart="6432.79" type="motorela">
        <route edges="west_luna_0 north_corrales_2" />
    </vehicle>
    <vehicle id="53600_97" depart="6462.30" type="motorela">
        <route edges="south_roa_0 south_roa_1 west_recto_2 west_recto_3" />
    </vehicle>
    <vehicle id="53600_98" depart="6491.80" type="motorela">
        <route edges="north_corrales_0 north_corrales_1 north_corrales_2" />
    </vehicle>
    <vehicle id="53600_99" depart="6521.31" type="motorela">
        <route edges="east_florentino_0 north_osmena_2 north_osmena_3" />
    </vehicle>
    <vehicle id="53600_100" depart="6550.82" type="motorela">
        <route edges="east_recto_0 east_recto_1 east_recto_2" />
    </vehicle>
    <vehicle id="53600_101" depart="6580.33" type="motorela">
        <route edges="south_corrales_0 south_corrales_1 east_recto_2" />
    </vehicle>
    <vehicle id="53600_102" depart="6609.84" type="motorela">
        <route edges="north_osmena_0 east_recto_1 east_recto_2" />
    </vehicle>
    <vehicle id="53600_103" depart="6639.34" type="motorela">
        <route edges="east_recto_0 east_recto_1 north_corrales_1 north_corrales_2" />
    </vehicle>
    <vehicle id="53600_104" depart="6668.85" type="motorela">
        <route edges="south_corrales_0 south_corrales_1 east_recto_2" />
    </vehicle>
    <vehicle id="53600_105" depart="6698.36" type="motorela">
        <route edges="east_recto_0 east_recto_1 east_recto_2" />
    </vehicle>
    <vehicle id="53600_106" depart="6727.87" type="motorela">
        <route edges="east_florentino_0 north_osmena_2 north_osmena_3" />
    </vehicle>
    <vehicle id="53600_107" depart="6757.38" type="motorela">
        <route edges="south_corrales_0 south_corrales_1 east_recto_2" />
    </vehicle>
    <vehicle id="53600_108" depart="6786.89" type="motorela">
        <route edges="south_corrales_0 south_corrales_1 east_recto_2" />
    </vehicle>
    <vehicle id="53600_109" depart="6816.39" type="motorela">
        <route edges="south_corrales_0 west_luna_1 west_luna_2 south_osmena_1 west_florentino_0" />
    </vehicle>
    <vehicle id="53600_110" depart="6845.90" type="motorela">
        <route edges="west_luna_0 north_corrales_2" />
    </vehicle>
    <vehicle id="53600_111" depart="6875.41" type="motorela">
        <route edges="east_recto_0 east_recto_1 north_corrales_1 north_corrales_2" />
    </vehicle>
    <vehicle id="53600_112" depart="6904.92" type="motorela">
        <route edges="north_osmena_0 east_recto_1 north_corrales_1 north_corrales_2" />
    </vehicle>
    <vehicle id="53600_113" depart="6934.43" type="motorela">
        <route edges="west_luna_0 west_luna_1 south_roa_1 west_recto_2 south_osmena_3" />