<routes xmlns:xsi="http://www.w3.org/2001/XMLSchema-instance" xsi:noNamespaceSchemaLocation="http://sumo.dlr.de/xsd/routes_file.xsd">
<vType id="others" accel="0.8" decel="4.0" sigma="0.5" length="7.0" minGap="2.5" maxSpeed="30.0" guiShape="truck" color="0,0,255" />

    <vehicle id="60_0" depart="0.00" type="others">
        <route edges="north_corrales_0 west_recto_1 north_roa_0 east_luna_1 south_corrales_1 south_corrales_2" />
    </vehicle>
    <vehicle id="60_1" depart="50.70" type="others">
        <route edges="east_recto_0 east_recto_1 south_corrales_2" />
    </vehicle>
    <vehicle id="60_2" depart="101.41" type="others">
        <route edges="east_recto_0 east_recto_1 east_recto_2" />
    </vehicle>
    <vehicle id="60_3" depart="152.11" type="others">
        <route edges="south_osmena_0 south_osmena_1 south_osmena_2 west_recto_3" />
    </vehicle>
    <vehicle id="60_4" depart="202.82" type="others">
        <route edges="east_recto_0 east_recto_1 east_recto_2" />
    </vehicle>
    <vehicle id="60_5" depart="253.52" type="others">
        <route edges="north_osmena_0 north_osmena_1 north_osmena_2 north_osmena_3" />
    </vehicle>
    <vehicle id="60_6" depart="304.23" type="others">
        <route edges="east_recto_0 east_recto_1 north_corrales_1 north_corrales_2" />
    </vehicle>
    <vehicle id="60_7" depart="354.93" type="others">
        <route edges="east_recto_0 east_recto_1 north_corrales_1 east_luna_2" />
    </vehicle>
    <vehicle id="60_8" depart="405.63" type="others">
        <route edges="east_florentino_0 south_osmena_2 south_osmena_3" />
    </vehicle>
    <vehicle id="60_9" depart="456.34" type="others">
        <route edges="east_recto_0 east_recto_1 east_recto_2" />
    </vehicle>
    <vehicle id="60_10" depart="507.04" type="others">
        <route edges="east_recto_0 east_recto_1 north_corrales_1 north_corrales_2" />
    </vehicle>
    <vehicle id="60_11" depart="557.75" type="others">
        <route edges="north_osmena_0 east_recto_1 east_recto_2" />
    </vehicle>
    <vehicle id="60_12" depart="608.45" type="others">
        <route edges="west_recto_0 west_recto_1 north_roa_0 north_roa_1" />
    </vehicle>
    <vehicle id="60_13" depart="659.15" type="others">
        <route edges="south_corrales_0 west_luna_1 north_roa_1 south_roa_0 east_luna_1 east_luna_2" />
    </vehicle>
    <vehicle id="60_14" depart="709.86" type="others">
        <route edges="east_recto_0 east_recto_1 north_corrales_1 north_corrales_2" />
    </vehicle>
    <vehicle id="60_15" depart="760.56" type="others">
        <route edges="west_recto_0 west_recto_1 west_recto_2 north_osmena_1 north_osmena_2 north_osmena_3" />
    </vehicle>
    <vehicle id="60_16" depart="811.27" type="others">
        <route edges="west_recto_0 west_recto_1 west_recto_2 west_recto_3" />
    </vehicle>
    <vehicle id="60_17" depart="861.97" type="others">
        <route edges="west_recto_0 west_recto_1 west_recto_2 west_recto_3" />
    </vehicle>
    <vehicle id="60_18" depart="912.68" type="others">
        <route edges="west_luna_0 west_luna_1 south_roa_1 west_recto_2 west_recto_3" />
    </vehicle>
    <vehicle id="60_19" depart="963.38" type="others">
        <route edges="east_recto_0 east_recto_1 east_recto_2" />
    </vehicle>
    <vehicle id="60_20" depart="1014.08" type="others">
        <route edges="north_corrales_0 west_recto_1 west_recto_2 west_recto_3" />
    </vehicle>
    <vehicle id="60_21" depart="1064.79" type="others">
        <route edges="south_corrales_0 south_corrales_1 west_recto_1 west_recto_2 south_osmena_3" />
    </vehicle>
    <vehicle id="60_22" depart="1115.49" type="others">
        <route edges="north_corrales_0 west_recto_1 west_recto_2 north_osmena_1 north_osmena_2 north_osmena_3" />
    </vehicle>
    <vehicle id="60_23" depart="1166.20" type="others">
        <route edges="north_osmena_0 north_osmena_1 north_osmena_2 north_osmena_3" />
    </vehicle>
    <vehicle id="60_24" depart="1216.90" type="others">
        <route edges="east_florentino_0 north_osmena_2 north_osmena_3" />
    </vehicle>
    <vehicle id="60_25" depart="1267.61" type="others">
        <route edges="north_osmena_0 east_recto_1 east_recto_2" />
    </vehicle>
    <vehicle id="60_26" depart="1318.31" type="others">
        <route edges="east_recto_0 north_osmena_1 north_osmena_2 east_luna_0 south_roa_1 west_recto_2 west_recto_3" />
    </vehicle>
    <vehicle id="60_27" depart="1369.01" type="others">
        <route edges="south_roa_0 west_luna_2 south_osmena_1 west_florentino_0" />
    </vehicle>
    <vehicle id="60_28" depart="1419.72" type="others">
        <route edges="north_corrales_0 west_recto_1 west_recto_2 south_osmena_3" />
    </vehicle>
    <vehicle id="60_29" depart="1470.42" type="others">
        <route edges="east_recto_0 north_osmena_1 west_florentino_0" />
    </vehicle>
    <vehicle id="60_30" depart="1521.13" type="others">
        <route edges="south_osmena_0 south_osmena_1 south_osmena_2 south_osmena_3" />
    </vehicle>
    <vehicle id="60_31" depart="1571.83" type="others">
        <route edges="south_corrales_0 south_corrales_1 west_recto_1 west_recto_2 west_recto_3" />
    </vehicle>
    <vehicle id="60_32" depart="1622.54" type="others">
        <route edges="south_osmena_0 south_osmena_1 south_osmena_2 west_recto_3" />
    </vehicle>
    <vehicle id="60_33" depart="1673.24" type="others">
        <route edges="north_corrales_0 west_recto_1 west_recto_2 west_recto_3" />
    </vehicle>
    <vehicle id="60_34" depart="1723.94" type="others">
        <route edges="north_corrales_0 west_recto_1 west_recto_2 west_recto_3" />
    </vehicle>
    <vehicle id="60_35" depart="1774.65" type="others">
        <route edges="west_recto_0 west_recto_1 north_roa_0 north_roa_1" />
    </vehicle>
    <vehicle id="60_36" depart="1825.35" type="others">
        <route edges="east_recto_0 east_recto_1 north_corrales_1 east_luna_2" />
    </vehicle>
    <vehicle id="60_37" depart="1876.06" type="others">
        <route edges="south_corrales_0 south_corrales_1 west_recto_1 west_recto_2 west_recto_3" />
    </vehicle>
    <vehicle id="60_38" depart="1926.76" type="others">
        <route edges="east_recto_0 east_recto_1 north_corrales_1 east_luna_2" />
    </vehicle>
    <vehicle id="60_39" depart="1977.46" type="others">
        <route edges="south_corrales_0 south_corrales_1 west_recto_1 west_recto_2 west_recto_3" />
    </vehicle>
    <vehicle id="60_40" depart="2028.17" type="others">
        <route edges="north_corrales_0 west_recto_1 west_recto_2 west_recto_3" />
    </vehicle>
    <vehicle id="60_41" depart="2078.87" type="others">
        <route edges="south_corrales_0 south_corrales_1 west_recto_1 west_recto_2 west_recto_3" />
    </vehicle>
    <vehicle id="60_42" depart="2129.58" type="others">
        <route edges="south_osmena_0 east_luna_0 north_roa_1 south_roa_0 west_luna_2 north_osmena_3" />
    </vehicle>
    <vehicle id="60_43" depart="2180.28" type="others">
        <route edges="east_recto_0 east_recto_1 south_corrales_2" />
    </vehicle>
    <vehicle id="60_44" depart="2230.99" type="others">
        <route edges="north_corrales_0 west_recto_1 west_recto_2 west_recto_3" />
    </vehicle>
    <vehicle id="60_45" depart="2281.69" type="others">
        <route edges="east_florentino_0 north_osmena_2 north_osmena_3" />
    </vehicle>
    <vehicle id="60_46" depart="2332.39" type="others">
        <route edges="south_osmena_0 south_osmena_1 south_osmena_2 east_recto_1 east_recto_2" />
    </vehicle>
    <vehicle id="60_47" depart="2383.10" type="others">
        <route edges="east_recto_0 east_recto_1 east_recto_2" />
    </vehicle>
    <vehicle id="60_48" depart="2433.80" type="others">
        <route edges="north_corrales_0 west_recto_1 west_recto_2 west_recto_3" />
    </vehicle>
    <vehicle id="60_49" depart="2484.51" type="others">
        <route edges="north_corrales_0 west_recto_1 west_recto_2 west_recto_3" />
    </vehicle>
    <vehicle id="60_50" depart="2535.21" type="others">
        <route edges="south_roa_0 south_roa_1 west_recto_2 south_osmena_3" />
    </vehicle>
    <vehicle id="60_51" depart="2585.92" type="others">
        <route edges="west_luna_0 west_luna_1 south_roa_1 west_recto_2 south_osmena_3" />
    </vehicle>
    <vehicle id="60_52" depart="2636.62" type="others">
        <route edges="north_corrales_0 west_recto_1 west_recto_2 north_osmena_1 north_osmena_2 north_osmena_3" />
    </vehicle>
    <vehicle id="60_53" depart="2687.32" type="others">
        <route edges="east_recto_0 east_recto_1 north_corrales_1 east_luna_2" />
    </vehicle>
    <vehicle id="60_54" depart="2738.03" type="others">
        <route edges="west_recto_0 west_recto_1 west_recto_2 west_recto_3" />
    </vehicle>
    <vehicle id="60_55" depart="2788.73" type="others">
        <route edges="north_corrales_0 west_recto_1 west_recto_2 west_recto_3" />
    </vehicle>
    <vehicle id="60_56" depart="2839.44" type="others">
        <route edges="north_osmena_0 north_osmena_1 north_osmena_2 north_osmena_3" />
    </vehicle>
    <vehicle id="60_57" depart="2890.14" type="others">
        <route edges="south_roa_0 south_roa_1 west_recto_2 north_osmena_1 north_osmena_2 east_luna_0 north_roa_1" />
    </vehicle>
    <vehicle id="60_58" depart="2940.85" type="others">
        <route edges="north_osmena_0 east_recto_1 east_recto_2" />
    </vehicle>
    <vehicle id="60_59" depart="2991.55" type="others">
        <route edges="east_recto_0 south_osmena_3" />
    </vehicle>
    <vehicle id="60_60" depart="3042.25" type="others">
        <route edges="south_roa_0 south_roa_1 west_recto_2 west_recto_3" />
    </vehicle>
    <vehicle id="60_61" depart="3092.96" type="others">
        <route edges="east_recto_0 east_recto_1 north_corrales_1 north_corrales_2" />
    </vehicle>
    <vehicle id="60_62" depart="3143.66" type="others">
        <route edges="west_recto_0 west_recto_1 west_recto_2 west_recto_3" />
    </vehicle>
    <vehicle id="60_63" depart="3194.37" type="others">
        <route edges="south_corrales_0 south_corrales_1 west_recto_1 west_recto_2 west_recto_3" />
    </vehicle>
    <vehicle id="60_64" depart="3245.07" type="others">
        <route edges="west_recto_0 west_recto_1 west_recto_2 west_recto_3" />
    </vehicle>
    <vehicle id="60_65" depart="3295.77" type="others">
        <route edges="east_recto_0 east_recto_1 east_recto_2" />
    </vehicle>
    <vehicle id="60_66" depart="3346.48" type="others">
        <route edges="east_recto_0 east_recto_1 south_corrales_2" />
    </vehicle>
    <vehicle id="60_67" depart="3397.18" type="others">
        <route edges="west_luna_0 west_luna_1 north_roa_1" />
    </vehicle>
    <vehicle id="60_68" depart="3447.89" type="others">
        <route edges="east_recto_0 east_recto_1 east_recto_2" />
    </vehicle>
    <vehicle id="60_69" depart="3498.59" type="others">
        <route edges="south_roa_0 east_luna_1 south_corrales_1 east_recto_2" />
    </vehicle>
    <vehicle id="60_70" depart="3549.30" type="others">
        <route edges="north_osmena_0 east_recto_1 east_recto_2" />
    </vehicle>

    <vehicle id="63600_0" depart="3600.00" type="others">
        <route edges="east_recto_0 east_recto_1 north_corrales_1 east_luna_2" />
    </vehicle>
    <vehicle id="63600_1" depart="3631.30" type="others">
        <route edges="west_recto_0 west_recto_1 west_recto_2 south_osmena_3" />
    </vehicle>
    <vehicle id="63600_2" depart="3662.61" type="others">
        <route edges="east_recto_0 east_recto_1 east_recto_2" />
    </vehicle>
    <vehicle id="63600_3" depart="3693.91" type="others">
        <route edges="north_osmena_0 north_osmena_1 north_osmena_2 north_osmena_3" />
    </vehicle>
    <vehicle id="63600_4" depart="3725.22" type="others">
        <route edges="east_recto_0 east_recto_1 north_corrales_1 north_corrales_2" />
    </vehicle>
    <vehicle id="63600_5" depart="3756.52" type="others">
        <route edges="south_osmena_0 south_osmena_1 west_florentino_0" />
    </vehicle>
    <vehicle id="63600_6" depart="3787.83" type="others">
        <route edges="south_corrales_0 south_corrales_1 west_recto_1 west_recto_2 west_recto_3" />
    </vehicle>
    <vehicle id="63600_7" depart="3819.13" type="others">
        <route edges="east_recto_0 east_recto_1 east_recto_2" />
    </vehicle>
    <vehicle id="63600_8" depart="3850.43" type="others">
        <route edges="east_florentino_0 north_osmena_2 east_luna_0 north_roa_1 south_roa_0 west_luna_2 south_osmena_1 west_florentino_0" />
    </vehicle>
    <vehicle id="63600_9" depart="3881.74" type="others">
        <route edges="south_roa_0 west_luna_2 north_osmena_3" />
    </vehicle>
    <vehicle id="63600_10" depart="3913.04" type="others">
        <route edges="north_corrales_0 west_recto_1 north_roa_0 north_roa_1" />
    </vehicle>
    <vehicle id="63600_11" depart="3944.35" type="others">
        <route edges="east_recto_0 east_recto_1 south_corrales_2" />
    </vehicle>
    <vehicle id="63600_12" depart="3975.65" type="others">
        <route edges="west_recto_0 west_recto_1 west_recto_2 west_recto_3" />
    </vehicle>
    <vehicle id="63600_13" depart="4006.96" type="others">
        <route edges="west_recto_0 west_recto_1 west_recto_2 west_recto_3" />
    </vehicle>
    <vehicle id="63600_14" depart="4038.26" type="others">
        <route edges="north_corrales_0 west_recto_1 west_recto_2 west_recto_3" />
    </vehicle>
    <vehicle id="63600_15" depart="4069.57" type="others">
        <route edges="west_recto_0 west_recto_1 west_recto_2 west_recto_3" />
    </vehicle>
    <vehicle id="63600_16" depart="4100.87" type="others">
        <route edges="north_corrales_0 west_recto_1 west_recto_2 west_recto_3" />
    </vehicle>
    <vehicle id="63600_17" depart="4132.17" type="others">
        <route edges="east_florentino_0 north_osmena_2 north_osmena_3" />
    </vehicle>
    <vehicle id="63600_18" depart="4163.48" type="others">
        <route edges="east_recto_0 east_recto_1 east_recto_2" />
    </vehicle>
    <vehicle id="63600_19" depart="4194.78" type="others">
        <route edges="east_recto_0 east_recto_1 east_recto_2" />
    </vehicle>
    <vehicle id="63600_20" depart="4226.09" type="others">
        <route edges="south_corrales_0 south_corrales_1 west_recto_1 west_recto_2 west_recto_3" />
    </vehicle>
    <vehicle id="63600_21" depart="4257.39" type="others">
        <route edges="north_corrales_0 west_recto_1 west_recto_2 west_recto_3" />
    </vehicle>
    <vehicle id="63600_22" depart="4288.70" type="others">
        <route edges="south_corrales_0 south_corrales_1 west_recto_1 west_recto_2 west_recto_3" />
    </vehicle>
    <vehicle id="63600_23" depart="4320.00" type="others">
        <route edges="east_recto_0 east_recto_1 north_corrales_1 north_corrales_2" />
    </vehicle>
    <vehicle id="63600_24" depart="4351.30" type="others">
        <route edges="east_recto_0 east_recto_1 south_corrales_2" />
    </vehicle>
    <vehicle id="63600_25" depart="4382.61" type="others">
        <route edges="north_corrales_0 west_recto_1 north_roa_0 east_luna_1 south_corrales_1 south_corrales_2" />
    </vehicle>
    <vehicle id="63600_26" depart="4413.91" type="others">
        <route edges="west_recto_0 west_recto_1 west_recto_2 west_recto_3" />
    </vehicle>
    <vehicle id="63600_27" depart="4445.22" type="others">
        <route edges="south_osmena_0 south_osmena_1 south_osmena_2 south_osmena_3" />
    </vehicle>
    <vehicle id="63600_28" depart="4476.52" type="others">
        <route edges="north_corrales_0 west_recto_1 west_recto_2 west_recto_3" />
    </vehicle>
    <vehicle id="63600_29" depart="4507.83" type="others">
        <route edges="west_recto_0 west_recto_1 west_recto_2 west_recto_3" />
    </vehicle>
    <vehicle id="63600_30" depart="4539.13" type="others">
        <route edges="east_florentino_0 north_osmena_2 north_osmena_3" />
    </vehicle>
    <vehicle id="63600_31" depart="4570.43" type="others">
        <route edges="west_luna_0 west_luna_1 north_roa_1 south_roa_0 east_luna_1 south_corrales_1 south_corrales_2" />
    </vehicle>
    <vehicle id="63600_32" depart="4601.74" type="others">
        <route edges="south_corrales_0 south_corrales_1 west_recto_1 west_recto_2 west_recto_3" />
    </vehicle>
    <vehicle id="63600_33" depart="4633.04" type="others">
        <route edges="east_recto_0 east_recto_1 south_corrales_2" />
    </vehicle>
    <vehicle id="63600_34" depart="4664.35" type="others">
        <route edges="west_luna_0 west_luna_1 north_roa_1 south_roa_0 east_luna_1 east_luna_2" />
    </vehicle>
    <vehicle id="63600_35" depart="4695.65" type="others">
        <route edges="east_recto_0 east_recto_1 east_recto_2" />
    </vehicle>
    <vehicle id="63600_36" depart="4726.96" type="others">
        <route edges="north_corrales_0 west_recto_1 west_recto_2 west_recto_3" />
    </vehicle>
    <vehicle id="63600_37" depart="4758.26" type="others">
        <route edges="south_osmena_0 south_osmena_1 south_osmena_2 east_recto_1 north_corrales_1 north_corrales_2" />
    </vehicle>
    <vehicle id="63600_38" depart="4789.57" type="others">
        <route edges="west_recto_0 west_recto_1 west_recto_2 west_recto_3" />
    </vehicle>
    <vehicle id="63600_39" depart="4820.87" type="others">
        <route edges="north_corrales_0 west_recto_1 west_recto_2 west_recto_3" />
    </vehicle>
    <vehicle id="63600_40" depart="4852.17" type="others">
        <route edges="east_recto_0 east_recto_1 east_recto_2" />
    </vehicle>
    <vehicle id="63600_41" depart="4883.48" type="others">
        <route edges="north_osmena_0 north_osmena_1 north_osmena_2 north_osmena_3" />
    </vehicle>
    <vehicle id="63600_42" depart="4914.78" type="others">
        <route edges="south_osmena_0 east_luna_0 east_luna_1 east_luna_2" />
    </vehicle>
    <vehicle id="63600_43" depart="4946.09" type="others">
        <route edges="north_corrales_0 west_recto_1 north_roa_0 north_roa_1" />
    </vehicle>
    <vehicle id="63600_44" depart="4977.39" type="others">
        <route edges="east_recto_0 east_recto_1 south_corrales_2" />
    </vehicle>
    <vehicle id="63600_45" depart="5008.70" type="others">
        <route edges="east_recto_0 east_recto_1 east_recto_2" />
    </vehicle>
    <vehicle id="63600_46" depart="5040.00" type="others">
        <route edges="east_recto_0 east_recto_1 south_corrales_2" />
    </vehicle>
    <vehicle id="63600_47" depart="5071.30" type="others">
        <route edges="north_corrales_0 west_recto_1 west_recto_2 north_osmena_1 west_florentino_0" />
    </vehicle>
    <vehicle id="63600_48" depart="5102.61" type="others">
        <route edges="south_corrales_0 south_corrales_1 west_recto_1 west_recto_2 west_recto_3" />
    </vehicle>
    <vehicle id="63600_49" depart="5133.91" type="others">
        <route edges="south_roa_0 south_roa_1 west_recto_2 west_recto_3" />
    </vehicle>
    <vehicle id="63600_50" depart="5165.22" type="others">
        <route edges="north_osmena_0 west_recto_3" />
    </vehicle>
    <vehicle id="63600_51" depart="5196.52" type="others">
        <route edges="east_recto_0 east_recto_1 south_corrales_2" />
    </vehicle>
    <vehicle id="63600_52" depart="5227.83" type="others">
        <route edges="east_recto_0 east_recto_1 south_corrales_2" />
    </vehicle>
    <vehicle id="63600_53" depart="5259.13" type="others">
        <route edges="east_recto_0 east_recto_1 east_recto_2" />
    </vehicle>
    <vehicle id="63600_54" depart="5290.43" type="others">
        <route edges="north_corrales_0 west_recto_1 west_recto_2 west_recto_3" />
    </vehicle>
    <vehicle id="63600_55" depart="5321.74" type="others">
        <route edges="north_corrales_0 west_recto_1 west_recto_2 south_osmena_3" />
    </vehicle>
    <vehicle id="63600_56" depart="5353.04" type="others">
        <route edges="west_recto_0 west_recto_1 west_recto_2 west_recto_3" />
    </vehicle>
    <vehicle id="63600_57" depart="5384.35" type="others">
        <route edges="north_corrales_0 west_recto_1 west_recto_2 west_recto_3" />
    </vehicle>
    <vehicle id="63600_58" depart="5415.65" type="others">
        <route edges="south_corrales_0 south_corrales_1 west_recto_1 west_recto_2 west_recto_3" />
    </vehicle>
    <vehicle id="63600_59" depart="5446.96" type="others">
        <route edges="south_roa_0 south_roa_1 west_recto_2 north_osmena_1 north_osmena_2 east_luna_0 north_roa_1" />
    </vehicle>
    <vehicle id="63600_60" depart="5478.26" type="others">
        <route edges="east_recto_0 east_recto_1 east_recto_2" />
    </vehicle>
    <vehicle id="63600_61" depart="5509.57" type="others">
        <route edges="north_osmena_0 west_recto_3" />
    </vehicle>
    <vehicle id="63600_62" depart="5540.87" type="others">
        <route edges="north_osmena_0 west_recto_3" />
    </vehicle>
    <vehicle id="63600_63" depart="5572.17" type="others">
        <route edges="west_recto_0 west_recto_1 west_recto_2 west_recto_3" />
    </vehicle>
    <vehicle id="63600_64" depart="5603.48" type="others">
        <route edges="west_recto_0 west_recto_1 west_recto_2 west_recto_3" />
    </vehicle>
    <vehicle id="63600_65" depart="5634.78" type="others">
        <route edges="east_florentino_0 north_osmena_2 north_osmena_3" />
    </vehicle>
    <vehicle id="63600_66" depart="5666.09" type="others">
        <route edges="west_luna_0 west_luna_1 south_roa_1 west_recto_2 west_recto_3" />
    </vehicle>
    <vehicle id="63600_67" depart="5697.39" type="others">
        <route edges="east_recto_0 east_recto_1 east_recto_2" />
    </vehicle>
    <vehicle id="63600_68" depart="5728.70" type="others">
        <route edges="east_recto_0 east_recto_1 south_corrales_2" />
    </vehicle>
    <vehicle id="63600_69" depart="5760.00" type="others">
        <route edges="south_corrales_0 south_corrales_1 west_recto_1 west_recto_2 west_recto_3" />
    </vehicle>
    <vehicle id="63600_70" depart="5791.30" type="others">
        <route edges="north_corrales_0 west_recto_1 west_recto_2 west_recto_3" />
    </vehicle>
    <vehicle id="63600_71" depart="5822.61" type="others">
        <route edges="east_recto_0 north_osmena_1 west_florentino_0" />
    </vehicle>
    <vehicle id="63600_72" depart="5853.91" type="others">
        <route edges="east_recto_0 east_recto_1 east_recto_2" />
    </vehicle>
    <vehicle id="63600_73" depart="5885.22" type="others">
        <route edges="north_corrales_0 west_recto_1 west_recto_2 west_recto_3" />
    </vehicle>
    <vehicle id="63600_74" depart="5916.52" type="others">
        <route edges="north_corrales_0 west_recto_1 west_recto_2 west_recto_3" />
    </vehicle>
    <vehicle id="63600_75" depart="5947.83" type="others">
        <route edges="north_corrales_0 west_recto_1 west_recto_2 north_osmena_1 north_osmena_2 north_osmena_3" />
    </vehicle>
    <vehicle id="63600_76" depart="5979.13" type="others">
        <route edges="east_recto_0 east_recto_1 east_recto_2" />
    </vehicle>
    <vehicle id="63600_77" depart="6010.43" type="others">
        <route edges="north_osmena_0 north_osmena_1 north_osmena_2 north_osmena_3" />
    </vehicle>
    <vehicle id="63600_78" depart="6041.74" type="others">
        <route edges="east_florentino_0 south_osmena_2 east_recto_1 south_corrales_2" />
    </vehicle>
    <vehicle id="63600_79" depart="6073.04" type="others">
        <route edges="west_recto_0 west_recto_1 west_recto_2 north_osmena_1 north_osmena_2 north_osmena_3" />
    </vehicle>
    <vehicle id="63600_80" depart="6104.35" type="others">
        <route edges="east_recto_0 east_recto_1 south_corrales_2" />
    </vehicle>
    <vehicle id="63600_81" depart="6135.65" type="others">
        <route edges="south_osmena_0 south_osmena_1 south_osmena_2 south_osmena_3" />
    </vehicle>
    <vehicle id="63600_82" depart="6166.96" type="others">
        <route edges="east_recto_0 north_osmena_1 west_florentino_0" />
    </vehicle>
    <vehicle id="63600_83" depart="6198.26" type="others">
        <route edges="east_recto_0 east_recto_1 north_corrales_1 north_corrales_2" />
    </vehicle>
    <vehicle id="63600_84" depart="6229.57" type="others">
        <route edges="south_corrales_0 south_corrales_1 west_recto_1 west_recto_2 west_recto_3" />
    </vehicle>
    <vehicle id="63600_85" depart="6260.87" type="others">
        <route edges="south_roa_0 south_roa_1 west_recto_2 south_osmena_3" />
    </vehicle>
    <vehicle id="63600_86" depart="6292.17" type="others">
        <route edges="east_recto_0 east_recto_1 east_recto_2" />
    </vehicle>
    <vehicle id="63600_87" depart="6323.48" type="others">
        <route edges="south_osmena_0 south_osmena_1 west_florentino_0" />
    </vehicle>
    <vehicle id="63600_88" depart="6354.78" type="others">
        <route edges="north_corrales_0 west_recto_1 west_recto_2 west_recto_3" />
    </vehicle>
    <vehicle id="63600_89" depart="6386.09" type="others">
        <route edges="east_recto_0 south_osmena_3" />
    </vehicle>
    <vehicle id="63600_90" depart="6417.39" type="others">
        <route edges="east_recto_0 south_osmena_3" />
    </vehicle>
    <vehicle id="63600_91" depart="6448.70" type="others">
        <route edges="east_florentino_0 south_osmena_2 south_osmena_3" />
    </vehicle>
    <vehicle id="63600_92" depart="6480.00" type="others">
        <route edges="north_corrales_0 west_recto_1 west_recto_2 south_osmena_3" />
    </vehicle>
    <vehicle id="63600_93" depart="6511.30" type="others">
        <route edges="east_recto_0 east_recto_1 south_corrales_2" />
    </vehicle>
    <vehicle id="63600_94" depart="6542.61" type="others">
        <route edges="west_recto_0 west_recto_1 west_recto_2 west_recto_3" />
    </vehicle>
    <vehicle id="63600_95" depart="6573.91" type="others">
        <route edges="north_osmena_0 north_osmena_1 north_osmena_2 north_osmena_3" />
    </vehicle>
    <vehicle id="63600_96" depart="6605.22" type="others">
        <route edges="east_recto_0 east_recto_1 east_recto_2" />
    </vehicle>
    <vehicle id="63600_97" depart="6636.52" type="others">
        <route edges="east_recto_0 north_osmena_1 north_osmena_2 east_luna_0 south_roa_1 west_recto_2 west_recto_3" />
    </vehicle>
    <vehicle id="63600_98" depart="6667.83" type="others">
        <route edges="east_recto_0 east_recto_1 south_corrales_2" />
    </vehicle>
    <vehicle id="63600_99" depart="6699.13" type="others">
        <route edges="north_osmena_0 north_osmena_1 north_osmena_2 north_osmena_3" />
    </vehicle>
    <vehicle id="63600_100" depart="6730.43" type="others">
        <route edges="east_recto_0 east_recto_1 south_corrales_2" />
    </vehicle>
    <vehicle id="63600_101" depart="6761.74" type="others">
        <route edges="north_osmena_0 east_recto_1 south_corrales_2" />
    </vehicle>
    <vehicle id="63600_102" depart="6793.04" type="others">
        <route edges="west_recto_0 west_recto_1 west_recto_2 south_osmena_3" />
    </vehicle>
    <vehicle id="63600_103" depart="6824.35" type="others">
        <route edges="east_recto_0 east_recto_1 south_corrales_2" />
    </vehicle>
    <vehicle id="63600_104" depart="6855.65" type="others">
        <route edges="west_recto_0 west_recto_1 west_recto_2 south_osmena_3" />
    </vehicle>
    <vehicle id="63600_105" depart="6886.96" type="others">
        <route edges="east_recto_0 east_recto_1 north_corrales_1 east_luna_2" />
    </vehicle>
    <vehicle id="63600_106" depart="6918.26" type="others">
        <route edges="north_osmena_0 north_osmena_1 north_osmena_2 north_osmena_3" />
    </vehicle>
    <vehicle id="63600_107" depart="6949.57" type="others">
        <route edges="north_corrales_0 west_recto_1 west_recto_2 west_recto_3" />
    </vehicle>
    <vehicle id="63600_108" depart="6980.87" type="others">
        <route edges="west_luna_0 west_luna_1 south_roa_1 west_recto_2 south_osmena_3" />
    </vehicle>
    <vehicle id="63600_109" depart="7012.17" type="others">
        <route edges="north_corrales_0 west_recto_1 west_recto_2 west_recto_3" />
    </vehicle>
    <vehicle id="63600_110" depart="7043.48" type="others">
        <route edges="west_recto_0 west_recto_1 west_recto_2 west_recto_3" />
    </vehicle>
    <vehicle id="63600_111" depart="7074.78" type="others">
        <route edges="east_recto_0 east_recto_1 north_corrales_1 east_luna_2" />
    </vehicle>
    <vehicle id="63600_112" depart="7106.09" type="others">
        <route edges="east_recto_0 south_osmena_3" />
    </vehicle>
    <vehicle id="63600_113" depart="7137.39" type="others">
        <route edges="west_recto_0 west_recto_1 west_recto_2 west_recto_3" />
    </vehicle>
    <vehicle id="63600_114" depart="7168.70" type="others">
        <route edges="east_recto_0 east_recto_1 north_corrales_1 east_luna_2" />
    </vehicle>

    <vehicle id="67200_0" depart="7200.00" type="others">
        <route edges="east_recto_0 east_recto_1 east_recto_2" />
    </vehicle>
    <vehicle id="67200_1" depart="7222.09" type="others">
        <route edges="north_osmena_0 east_recto_1 east_recto_2" />
    </vehicle>
    <vehicle id="67200_2" depart="7244.17" type="others">
        <route edges="east_recto_0 east_recto_1 north_corrales_1 east_luna_2" />
    </vehicle>
    <vehicle id="67200_3" depart="7266.26" type="others">