<routes xmlns:xsi="http://www.w3.org/2001/XMLSchema-instance" xsi:noNamespaceSchemaLocation="http://sumo.dlr.de/xsd/routes_file.xsd">
<vType id="smallTrucks" accel="0.8" decel="4.0" sigma="0.5" length="7.0" minGap="2.5" maxSpeed="30.0" guiShape="truck" color="0,0,255" /> 

    <vehicle id="70_0" depart="0.00" type="smallTrucks">
        <route edges="west_recto_0 west_recto_1 west_recto_2 west_recto_3" />
    </vehicle>
    <vehicle id="70_1" depart="14.23" type="smallTrucks">
        <route edges="south_roa_0 east_luna_1 east_luna_2" />
    </vehicle>
    <vehicle id="70_2" depart="28.46" type="smallTrucks">
        <route edges="east_florentino_0 north_osmena_2 north_osmena_3" />
    </vehicle>
    <vehicle id="70_3" depart="42.69" type="smallTrucks">
        <route edges="east_florentino_0 north_osmena_2 east_luna_0 north_roa_1" />
    </vehicle>
    <vehicle id="70_4" depart="56.92" type="smallTrucks">
        <route edges="east_recto_0 east_recto_1 north_corrales_1 north_corrales_2" />
    </vehicle>
    <vehicle id="70_5" depart="71.15" type="smallTrucks">
        <route edges="east_recto_0 east_recto_1 south_corrales_2" />
    </vehicle>
    <vehicle id="70_6" depart="85.38" type="smallTrucks">
        <route edges="west_recto_0 west_recto_1 north_roa_0 north_roa_1" />
    </vehicle>
    <vehicle id="70_7" depart="99.60" type="smallTrucks">
        <route edges="south_roa_0 south_roa_1 west_recto_2 south_osmena_3" />
    </vehicle>
    <vehicle id="70_8" depart="113.83" type="smallTrucks">
        <route edges="north_osmena_0 north_osmena_1 north_osmena_2 north_osmena_3" />
    </vehicle>
    <vehicle id="70_9" depart="128.06" type="smallTrucks">
        <route edges="west_recto_0 north_corrales_1 east_luna_2" />
    </vehicle>
    <vehicle id="70_10" depart="142.29" type="smallTrucks">
        <route edges="west_recto_0 west_recto_1 west_recto_2 north_osmena_1 west_florentino_0" />
    </vehicle>
    <vehicle id="70_11" depart="156.52" type="smallTrucks">
        <route edges="south_osmena_0 east_luna_0 north_roa_1" />
    </vehicle>
    <vehicle id="70_12" depart="170.75" type="smallTrucks">
        <route edges="north_osmena_0 north_osmena_1 north_osmena_2 north_osmena_3" />
    </vehicle>
    <vehicle id="70_13" depart="184.98" type="smallTrucks">
        <route edges="south_roa_0 south_roa_1 west_recto_2 north_osmena_1 north_osmena_2 east_luna_0 north_roa_1" />
    </vehicle>
    <vehicle id="70_14" depart="199.21" type="smallTrucks">
        <route edges="west_recto_0 west_recto_1 west_recto_2 north_osmena_1 west_florentino_0" />
    </vehicle>
    <vehicle id="70_15" depart="213.44" type="smallTrucks">
        <route edges="south_corrales_0 south_corrales_1 east_recto_2" />
    </vehicle>
    <vehicle id="70_16" depart="227.67" type="smallTrucks">
        <route edges="east_recto_0 east_recto_1 south_corrales_2" />
    </vehicle>
    <vehicle id="70_17" depart="241.90" type="smallTrucks">
        <route edges="east_florentino_0 north_osmena_2 north_osmena_3" />
    </vehicle>
    <vehicle id="70_18" depart="256.13" type="smallTrucks">
        <route edges="north_corrales_0 north_corrales_1 north_corrales_2" />
    </vehicle>
    <vehicle id="70_19" depart="270.36" type="smallTrucks">
        <route edges="east_recto_0 east_recto_1 east_recto_2" />
    </vehicle>
    <vehicle id="70_20" depart="284.58" type="smallTrucks">
        <route edges="south_corrales_0 south_corrales_1 east_recto_2" />
    </vehicle>
    <vehicle id="70_21" depart="298.81" type="smallTrucks">
        <route edges="west_recto_0 north_corrales_1 east_luna_2" />
    </vehicle>
    <vehicle id="70_22" depart="313.04" type="smallTrucks">
        <route edges="south_corrales_0 south_corrales_1 east_recto_2" />
    </vehicle>
    <vehicle id="70_23" depart="327.27" type="smallTrucks">
        <route edges="east_recto_0 east_recto_1 south_corrales_2" />
    </vehicle>
    <vehicle id="70_24" depart="341.50" type="smallTrucks">
        <route edges="east_florentino_0 north_osmena_2 north_osmena_3" />
    </vehicle>
    <vehicle id="70_25" depart="355.73" type="smallTrucks">
        <route edges="east_recto_0 east_recto_1 east_recto_2" />
    </vehicle>
    <vehicle id="70_26" depart="369.96" type="smallTrucks">
        <route edges="north_corrales_0 west_recto_1 west_recto_2 south_osmena_3" />
    </vehicle>
    <vehicle id="70_27" depart="384.19" type="smallTrucks">
        <route edges="north_corrales_0 north_corrales_1 north_corrales_2" />
    </vehicle>
    <vehicle id="70_28" depart="398.42" type="smallTrucks">
        <route edges="west_recto_0 south_corrales_2" />
    </vehicle>
    <vehicle id="70_29" depart="412.65" type="smallTrucks">
        <route edges="west_recto_0 west_recto_1 west_recto_2 west_recto_3" />
    </vehicle>
    <vehicle id="70_30" depart="426.88" type="smallTrucks">
        <route edges="east_florentino_0 north_osmena_2 north_osmena_3" />
    </vehicle>
    <vehicle id="70_31" depart="441.11" type="smallTrucks">
        <route edges="west_luna_0 north_corrales_2" />
    </vehicle>
    <vehicle id="70_32" depart="455.34" type="smallTrucks">
        <route edges="south_roa_0 east_luna_1 east_luna_2" />
    </vehicle>
    <vehicle id="70_33" depart="469.57" type="smallTrucks">
        <route edges="west_recto_0 west_recto_1 west_recto_2 south_osmena_3" />
    </vehicle>
    <vehicle id="70_34" depart="483.79" type="smallTrucks">
        <route edges="west_recto_0 west_recto_1 west_recto_2 north_osmena_1 north_osmena_2 north_osmena_3" />
    </vehicle>
    <vehicle id="70_35" depart="498.02" type="smallTrucks">
        <route edges="east_recto_0 east_recto_1 east_recto_2" />
    </vehicle>
    <vehicle id="70_36" depart="512.25" type="smallTrucks">
        <route edges="east_recto_0 east_recto_1 south_corrales_2" />
    </vehicle>
    <vehicle id="70_37" depart="526.48" type="smallTrucks">
        <route edges="east_florentino_0 north_osmena_2 north_osmena_3" />
    </vehicle>
    <vehicle id="70_38" depart="540.71" type="smallTrucks">
        <route edges="west_recto_0 west_recto_1 west_recto_2 north_osmena_1 west_florentino_0" />
    </vehicle>
    <vehicle id="70_39" depart="554.94" type="smallTrucks">
        <route edges="south_osmena_0 east_luna_0 east_luna_1 east_luna_2" />
    </vehicle>
    <vehicle id="70_40" depart="569.17" type="smallTrucks">
        <route edges="east_recto_0 south_osmena_3" />
    </vehicle>
    <vehicle id="70_41" depart="583.40" type="smallTrucks">
        <route edges="south_osmena_0 south_osmena_1 west_florentino_0" />
    </vehicle>
    <vehicle id="70_42" depart="597.63" type="smallTrucks">
        <route edges="south_roa_0 south_roa_1 west_recto_2 west_recto_3" />
    </vehicle>
    <vehicle id="70_43" depart="611.86" type="smallTrucks">
        <route edges="west_recto_0 west_recto_1 west_recto_2 north_osmena_1 north_osmena_2 north_osmena_3" />
    </vehicle>
    <vehicle id="70_44" depart="626.09" type="smallTrucks">
        <route edges="east_recto_0 east_recto_1 east_recto_2" />
    </vehicle>
    <vehicle id="70_45" depart="640.32" type="smallTrucks">
        <route edges="east_recto_0 north_osmena_1 north_osmena_2 east_luna_0 south_roa_1 west_recto_2 west_recto_3" />
    </vehicle>
    <vehicle id="70_46" depart="654.55" type="smallTrucks">
        <route edges="west_recto_0 west_recto_1 west_recto_2 south_osmena_3" />
    </vehicle>
    <vehicle id="70_47" depart="668.77" type="smallTrucks">
        <route edges="west_recto_0 west_recto_1 north_roa_0 north_roa_1" />
    </vehicle>
    <vehicle id="70_48" depart="683.00" type="smallTrucks">
        <route edges="west_recto_0 west_recto_1 north_roa_0 north_roa_1" />
    </vehicle>
    <vehicle id="70_49" depart="697.23" type="smallTrucks">
        <route edges="north_osmena_0 north_osmena_1 west_florentino_0" />
    </vehicle>
    <vehicle id="70_50" depart="711.46" type="smallTrucks">
        <route edges="west_recto_0 south_corrales_2" />
    </vehicle>
    <vehicle id="70_51" depart="725.69" type="smallTrucks">
        <route edges="west_luna_0 west_luna_1 west_luna_2 south_osmena_1 west_florentino_0" />
    </vehicle>
    <vehicle id="70_52" depart="739.92" type="smallTrucks">
        <route edges="south_osmena_0 south_osmena_1 south_osmena_2 west_recto_3" />
    </vehicle>
    <vehicle id="70_53" depart="754.15" type="smallTrucks">
        <route edges="east_recto_0 east_recto_1 east_recto_2" />
    </vehicle>
    <vehicle id="70_54" depart="768.38" type="smallTrucks">
        <route edges="east_florentino_0 north_osmena_2 north_osmena_3" />
    </vehicle>
    <vehicle id="70_55" depart="782.61" type="smallTrucks">
        <route edges="east_recto_0 east_recto_1 north_corrales_1 north_corrales_2" />
    </vehicle>
    <vehicle id="70_56" depart="796.84" type="smallTrucks">
        <route edges="south_roa_0 south_roa_1 west_recto_2 south_osmena_3" />
    </vehicle>
    <vehicle id="70_57" depart="811.07" type="smallTrucks">
        <route edges="south_roa_0 south_roa_1 west_recto_2 north_osmena_1 north_osmena_2 east_luna_0 north_roa_1" />
    </vehicle>
    <vehicle id="70_58" depart="825.30" type="smallTrucks">
        <route edges="east_florentino_0 north_osmena_2 north_osmena_3" />
    </vehicle>
    <vehicle id="70_59" depart="839.53" type="smallTrucks">
        <route edges="east_recto_0 east_recto_1 east_recto_2" />
    </vehicle>
    <vehicle id="70_60" depart="853.75" type="smallTrucks">
        <route edges="south_corrales_0 south_corrales_1 east_recto_2" />
    </vehicle>
    <vehicle id="70_61" depart="867.98" type="smallTrucks">
        <route edges="east_recto_0 east_recto_1 south_corrales_2" />
    </vehicle>
    <vehicle id="70_62" depart="882.21" type="smallTrucks">
        <route edges="east_recto_0 east_recto_1 east_recto_2" />
    </vehicle>
    <vehicle id="70_63" depart="896.44" type="smallTrucks">
        <route edges="east_florentino_0 north_osmena_2 north_osmena_3" />
    </vehicle>
    <vehicle id="70_64" depart="910.67" type="smallTrucks">
        <route edges="east_recto_0 south_osmena_3" />
    </vehicle>
    <vehicle id="70_65" depart="924.90" type="smallTrucks">
        <route edges="east_florentino_0 south_osmena_2 south_osmena_3" />
    </vehicle>
    <vehicle id="70_66" depart="939.13" type="smallTrucks">
        <route edges="east_florentino_0 north_osmena_2 north_osmena_3" />
    </vehicle>
    <vehicle id="70_67" depart="953.36" type="smallTrucks">
        <route edges="south_osmena_0 south_osmena_1 south_osmena_2 east_recto_1 east_recto_2" />
    </vehicle>
    <vehicle id="70_68" depart="967.59" type="smallTrucks">
        <route edges="east_florentino_0 north_osmena_2 north_osmena_3" />
    </vehicle>
    <vehicle id="70_69" depart="981.82" type="smallTrucks">
        <route edges="south_osmena_0 south_osmena_1 west_florentino_0" />
    </vehicle>
    <vehicle id="70_70" depart="996.05" type="smallTrucks">
        <route edges="south_corrales_0 south_corrales_1 east_recto_2" />
    </vehicle>
    <vehicle id="70_71" depart="1010.28" type="smallTrucks">
        <route edges="north_corrales_0 north_corrales_1 north_corrales_2" />
    </vehicle>
    <vehicle id="70_72" depart="1024.51" type="smallTrucks">
        <route edges="south_corrales_0 south_corrales_1 east_recto_2" />
    </vehicle>
    <vehicle id="70_73" depart="1038.74" type="smallTrucks">
        <route edges="east_recto_0 east_recto_1 north_corrales_1 north_corrales_2" />
    </vehicle>
    <vehicle id="70_74" depart="1052.96" type="smallTrucks">
        <route edges="south_roa_0 south_roa_1 west_recto_2 west_recto_3" />
    </vehicle>
    <vehicle id="70_75" depart="1067.19" type="smallTrucks">
        <route edges="south_osmena_0 south_osmena_1 south_osmena_2 east_recto_1 north_corrales_1 north_corrales_2" />
    </vehicle>
    <vehicle id="70_76" depart="1081.42" type="smallTrucks">
        <route edges="south_corrales_0 south_corrales_1 west_recto_1 west_recto_2 south_osmena_3" />
    </vehicle>
    <vehicle id="70_77" depart="1095.65" type="smallTrucks">
        <route edges="east_recto_0 east_recto_1 east_recto_2" />
    </vehicle>
    <vehicle id="70_78" depart="1109.88" type="smallTrucks">
        <route edges="south_osmena_0 south_osmena_1 south_osmena_2 south_osmena_3" />
    </vehicle>
    <vehicle id="70_79" depart="1124.11" type="smallTrucks">
        <route edges="west_recto_0 west_recto_1 north_roa_0 north_roa_1" />
    </vehicle>
    <vehicle id="70_80" depart="1138.34" type="smallTrucks">
        <route edges="east_recto_0 east_recto_1 south_corrales_2" />
    </vehicle>
    <vehicle id="70_81" depart="1152.57" type="smallTrucks">
        <route edges="north_osmena_0 north_osmena_1 north_osmena_2 north_osmena_3" />
    </vehicle>
    <vehicle id="70_82" depart="1166.80" type="smallTrucks">
        <route edges="north_osmena_0 north_osmena_1 north_osmena_2 north_osmena_3" />
    </vehicle>
    <vehicle id="70_83" depart="1181.03" type="smallTrucks">
        <route edges="east_recto_0 south_osmena_3" />
    </vehicle>
    <vehicle id="70_84" depart="1195.26" type="smallTrucks">
        <route edges="north_corrales_0 north_corrales_1 north_corrales_2" />
    </vehicle>
    <vehicle id="70_85" depart="1209.49" type="smallTrucks">
        <route edges="south_roa_0 south_roa_1 west_recto_2 south_osmena_3" />
    </vehicle>
    <vehicle id="70_86" depart="1223.72" type="smallTrucks">
        <route edges="east_recto_0 east_recto_1 east_recto_2" />
    </vehicle>
    <vehicle id="70_87" depart="1237.94" type="smallTrucks">
        <route edges="west_recto_0 west_recto_1 west_recto_2 west_recto_3" />
    </vehicle>
    <vehicle id="70_88" depart="1252.17" type="smallTrucks">
        <route edges="north_osmena_0 north_osmena_1 north_osmena_2 north_osmena_3" />
    </vehicle>
    <vehicle id="70_89" depart="1266.40" type="smallTrucks">
        <route edges="south_osmena_0 south_osmena_1 south_osmena_2 east_recto_1 east_recto_2" />
    </vehicle>
    <vehicle id="70_90" depart="1280.63" type="smallTrucks">
        <route edges="east_recto_0 east_recto_1 east_recto_2" />
    </vehicle>
    <vehicle id="70_91" depart="1294.86" type="smallTrucks">
        <route edges="south_roa_0 south_roa_1 west_recto_2 west_recto_3" />
    </vehicle>
    <vehicle id="70_92" depart="1309.09" type="smallTrucks">
        <route edges="east_recto_0 east_recto_1 east_recto_2" />
    </vehicle>
    <vehicle id="70_93" depart="1323.32" type="smallTrucks">
        <route edges="south_osmena_0 south_osmena_1 west_florentino_0" />
    </vehicle>
    <vehicle id="70_94" depart="1337.55" type="smallTrucks">
        <route edges="east_florentino_0 north_osmena_2 north_osmena_3" />
    </vehicle>
    <vehicle id="70_95" depart="1351.78" type="smallTrucks">
        <route edges="south_osmena_0 south_osmena_1 south_osmena_2 west_recto_3" />
    </vehicle>
    <vehicle id="70_96" depart="1366.01" type="smallTrucks">
        <route edges="south_corrales_0 south_corrales_1 east_recto_2" />
    </vehicle>
    <vehicle id="70_97" depart="1380.24" type="smallTrucks">
        <route edges="east_recto_0 east_recto_1 east_recto_2" />
    </vehicle>
    <vehicle id="70_98" depart="1394.47" type="smallTrucks">
        <route edges="south_osmena_0 south_osmena_1 south_osmena_2 east_recto_1 south_corrales_2" />
    </vehicle>
    <vehicle id="70_99" depart="1408.70" type="smallTrucks">
        <route edges="west_luna_0 west_luna_1 south_roa_1 west_recto_2 west_recto_3" />
    </vehicle>
    <vehicle id="70_100" depart="1422.92" type="smallTrucks">
        <route edges="east_recto_0 east_recto_1 east_recto_2" />
    </vehicle>
    <vehicle id="70_101" depart="1437.15" type="smallTrucks">
        <route edges="south_roa_0 west_luna_2 north_osmena_3" />
    </vehicle>
    <vehicle id="70_102" depart="1451.38" type="smallTrucks">
        <route edges="east_recto_0 east_recto_1 east_recto_2" />
    </vehicle>
    <vehicle id="70_103" depart="1465.61" type="smallTrucks">
        <route edges="east_recto_0 east_recto_1 south_corrales_2" />
    </vehicle>
    <vehicle id="70_104" depart="1479.84" type="smallTrucks">
        <route edges="south_corrales_0 west_luna_1 west_luna_2 south_osmena_1 south_osmena_2 east_recto_1 north_corrales_1 north_corrales_2" />
    </vehicle>
    <vehicle id="70_105" depart="1494.07" type="smallTrucks">
        <route edges="south_roa_0 south_roa_1 west_recto_2 west_recto_3" />
    </vehicle>
    <vehicle id="70_106" depart="1508.30" type="smallTrucks">
        <route edges="south_corrales_0 south_corrales_1 east_recto_2" />
    </vehicle>
    <vehicle id="70_107" depart="1522.53" type="smallTrucks">
        <route edges="south_osmena_0 south_osmena_1 west_florentino_0" />
    </vehicle>
    <vehicle id="70_108" depart="1536.76" type="smallTrucks">
        <route edges="east_florentino_0 north_osmena_2 north_osmena_3" />
    </vehicle>
    <vehicle id="70_109" depart="1550.99" type="smallTrucks">
        <route edges="south_osmena_0 south_osmena_1 south_osmena_2 east_recto_1 north_corrales_1 north_corrales_2" />
    </vehicle>
    <vehicle id="70_110" depart="1565.22" type="smallTrucks">
        <route edges="east_recto_0 east_recto_1 south_corrales_2" />
    </vehicle>
    <vehicle id="70_111" depart="1579.45" type="smallTrucks">
        <route edges="east_recto_0 east_recto_1 south_corrales_2" />
    </vehicle>
    <vehicle id="70_112" depart="1593.68" type="smallTrucks">
        <route edges="east_recto_0 east_recto_1 north_corrales_1 north_corrales_2" />
    </vehicle>
    <vehicle id="70_113" depart="1607.91" type="smallTrucks">
        <route edges="south_roa_0 south_roa_1 west_recto_2 south_osmena_3" />
    </vehicle>
    <vehicle id="70_114" depart="1622.13" type="smallTrucks">
        <route edges="west_recto_0 west_recto_1 north_roa_0 north_roa_1" />
    </vehicle>
    <vehicle id="70_115" depart="1636.36" type="smallTrucks">
        <route edges="west_luna_0 north_corrales_2" />
    </vehicle>
    <vehicle id="70_116" depart="1650.59" type="smallTrucks">
        <route edges="west_recto_0 west_recto_1 west_recto_2 north_osmena_1 west_florentino_0" />
    </vehicle>
    <vehicle id="70_117" depart="1664.82" type="smallTrucks">
        <route edges="west_luna_0 west_luna_1 south_roa_1 west_recto_2 west_recto_3" />
    </vehicle>
    <vehicle id="70_118" depart="1679.05" type="smallTrucks">
        <route edges="east_recto_0 east_recto_1 south_corrales_2" />
    </vehicle>
    <vehicle id="70_119" depart="1693.28" type="smallTrucks">
        <route edges="east_recto_0 east_recto_1 south_corrales_2" />
    </vehicle>
    <vehicle id="70_120" depart="1707.51" type="smallTrucks">
        <route edges="south_osmena_0 east_luna_0 north_roa_1" />
    </vehicle>
    <vehicle id="70_121" depart="1721.74" type="smallTrucks">
        <route edges="east_florentino_0 north_osmena_2 north_osmena_3" />
    </vehicle>
    <vehicle id="70_122" depart="1735.97" type="smallTrucks">
        <route edges="north_osmena_0 north_osmena_1 north_osmena_2 north_osmena_3" />
    </vehicle>
    <vehicle id="70_123" depart="1750.20" type="smallTrucks">
        <route edges="east_florentino_0 north_osmena_2 north_osmena_3" />
    </vehicle>
    <vehicle id="70_124" depart="1764.43" type="smallTrucks">
        <route edges="west_recto_0 west_recto_1 west_recto_2 west_recto_3" />
    </vehicle>
    <vehicle id="70_125" depart="1778.66" type="smallTrucks">
        <route edges="east_recto_0 east_recto_1 north_corrales_1 north_corrales_2" />
    </vehicle>
    <vehicle id="70_126" depart="1792.89" type="smallTrucks">
        <route edges="north_corrales_0 north_corrales_1 north_corrales_2" />
    </vehicle>
    <vehicle id="70_127" depart="1807.11" type="smallTrucks">
        <route edges="east_recto_0 east_recto_1 east_recto_2" />
    </vehicle>
    <vehicle id="70_128" depart="1821.34" type="smallTrucks">
        <route edges="west_recto_0 west_recto_1 west_recto_2 north_osmena_1 north_osmena_2 north_osmena_3" />
    </vehicle>
    <vehicle id="70_129" depart="1835.57" type="smallTrucks">
        <route edges="south_osmena_0 south_osmena_1 south_osmena_2 west_recto_3" />
    </vehicle>
    <vehicle id="70_130" depart="1849.80" type="smallTrucks">
        <route edges="east_recto_0 east_recto_1 east_recto_2" />
    </vehicle>
    <vehicle id="70_131" depart="1864.03" type="smallTrucks">
        <route edges="east_recto_0 east_recto_1 south_corrales_2" />
    </vehicle>
    <vehicle id="70_132" depart="1878.26" type="smallTrucks">
        <route edges="east_recto_0 east_recto_1 south_corrales_2" />
    </vehicle>
    <vehicle id="70_133" depart="1892.49" type="smallTrucks">
        <route edges="east_recto_0 north_osmena_1 north_osmena_2 east_luna_0 south_roa_1 west_recto_2 west_recto_3" />
    </vehicle>
    <vehicle id="70_134" depart="1906.72" type="smallTrucks">
        <route edges="south_corrales_0 west_luna_1 north_roa_1" />
    </vehicle>
    <vehicle id="70_135" depart="1920.95" type="smallTrucks">
        <route edges="east_recto_0 east_recto_1 south_corrales_2" />
    </vehicle>
    <vehicle id="70_136" depart="1935.18" type="smallTrucks">
        <route edges="south_roa_0 east_luna_1 east_luna_2" />
    </vehicle>
    <vehicle id="70_137" depart="1949.41" type="smallTrucks">
        <route edges="south_osmena_0 south_osmena_1 south_osmena_2 east_recto_1 south_corrales_2" />
    </vehicle>
    <vehicle id="70_138" depart="1963.64" type="smallTrucks">
        <route edges="east_florentino_0 north_osmena_2 north_osmena_3" />
    </vehicle>
    <vehicle id="70_139" depart="1977.87" type="smallTrucks">
        <route edges="east_florentino_0 north_osmena_2 north_osmena_3" />
    </vehicle>
    <vehicle id="70_140" depart="1992.09" type="smallTrucks">
        <route edges="east_recto_0 east_recto_1 east_recto_2" />
    </vehicle>
    <vehicle id="70_141" depart="2006.32" type="smallTrucks">
        <route edges="east_recto_0 east_recto_1 north_corrales_1 north_corrales_2" />
    </vehicle>
    <vehicle id="70_142" depart="2020.55" type="smallTrucks">
        <route edges="south_roa_0 south_roa_1 west_recto_2 west_recto_3" />
    </vehicle>
    <vehicle id="70_143" depart="2034.78" type="smallTrucks">
        <route edges="south_osmena_0 south_osmena_1 south_osmena_2 east_recto_1 south_corrales_2" />
    </vehicle>
    <vehicle id="70_144" depart="2049.01" type="smallTrucks">
        <route edges="east_florentino_0 north_osmena_2 north_osmena_3" />
    </vehicle>
    <vehicle id="70_145" depart="2063.24" type="smallTrucks">
        <route edges="south_corrales_0 west_luna_1 north_roa_1" />
    </vehicle>
    <vehicle id="70_146" depart="2077.47" type="smallTrucks">
        <route edges="east_recto_0 east_recto_1 east_recto_2" />
    </vehicle>
    <vehicle id="70_147" depart="2091.70" type="smallTrucks">
        <route edges="west_recto_0 west_recto_1 west_recto_2 north_osmena_1 west_florentino_0" />
    </vehicle>
    <vehicle id="70_148" depart="2105.93" type="smallTrucks">
        <route edges="east_recto_0 east_recto_1 east_recto_2" />
    </vehicle>
    <vehicle id="70_149" depart="2120.16" type="smallTrucks">
        <route edges="east_recto_0 east_recto_1 east_recto_2" />
    </vehicle>
    <vehicle id="70_150" depart="2134.39" type="smallTrucks">
        <route edges="south_roa_0 south_roa_1 west_recto_2 north_osmena_1 north_osmena_2 east_luna_0 north_roa_1" />
    </vehicle>
    <vehicle id="70_151" depart="2148.62" type="smallTrucks">
        <route edges="south_corrales_0 south_corrales_1 east_recto_2" />
    </vehicle>
    <vehicle id="70_152" depart="2162.85" type="smallTrucks">
        <route edges="east_florentino_0 north_osmena_2 north_osmena_3" />
    </vehicle>
    <vehicle id="70_153" depart="2177.08" type="smallTrucks">
        <route edges="east_recto_0 east_recto_1 east_recto_2" />
    </vehicle>
    <vehicle id="70_154" depart="2191.30" type="smallTrucks">
        <route edges="east_florentino_0 north_osmena_2 north_osmena_3" />
    </vehicle>
    <vehicle id="70_155" depart="2205.53" type="smallTrucks">
        <route edges="east_recto_0 east_recto_1 east_recto_2" />
    </vehicle>
    <vehicle id="70_156" depart="2219.76" type="smallTrucks">
        <route edges="south_osmena_0 south_osmena_1 south_osmena_2 south_osmena_3" />
    </vehicle>
    <vehicle id="70_157" depart="2233.99" type="smallTrucks">
        <route edges="north_osmena_0 east_recto_1 east_recto_2" />
    </vehicle>
    <vehicle id="70_158" depart="2248.22" type="smallTrucks">
        <route edges="east_recto_0 east_recto_1 east_recto_2" />
    </vehicle>
    <vehicle id="70_159" depart="2262.45" type="smallTrucks">
        <route edges="east_florentino_0 north_osmena_2 north_osmena_3" />
    </vehicle>
    <vehicle id="70_160" depart="2276.68" type="smallTrucks">
        <route edges="south_corrales_0 south_corrales_1 east_recto_2" />
    </vehicle>
    <vehicle id="70_161" depart="2290.91" type="smallTrucks">
        <route edges="east_recto_0 east_recto_1 east_recto_2" />
    </vehicle>
    <vehicle id="70_162" depart="2305.14" type="smallTrucks">
        <route edges="north_osmena_0 north_osmena_1 north_osmena_2 north_osmena_3" />
    </vehicle>
    <vehicle id="70_163" depart="2319.37" type="smallTrucks">
        <route edges="north_osmena_0 north_osmena_1 north_osmena_2 east_luna_0 south_roa_1 west_recto_2 south_osmena_3" />
    </vehicle>
    <vehicle id="70_164" depart="2333.60" type="smallTrucks">
        <route edges="east_recto_0 east_recto_1 east_recto_2" />
    </vehicle>
    <vehicle id="70_165" depart="2347.83" type="smallTrucks">
        <route edges="south_roa_0 south_roa_1 west_recto_2 south_osmena_3" />
    </vehicle>
    <vehicle id="70_166" depart="2362.06" type="smallTrucks">
        <route edges="south_osmena_0 south_osmena_1 west_florentino_0" />
    </vehicle>
    <vehicle id="70_167" depart="2376.28" type="smallTrucks">
        <route edges="west_recto_0 west_recto_1 west_recto_2 south_osmena_3" />
    </vehicle>
    <vehicle id="70_168" depart="2390.51" type="smallTrucks">
        <route edges="west_recto_0 west_recto_1 west_recto_2 west_recto_3" />
    </vehicle>
    <vehicle id="70_169" depart="2404.74" type="smallTrucks">
        <route edges="east_florentino_0 north_osmena_2 north_osmena_3" />
    </vehicle>
    <vehicle id="70_170" depart="2418.97" type="smallTrucks">
        <route edges="south_osmena_0 east_luna_0 east_luna_1 east_luna_2" />
    </vehicle>
    <vehicle id="70_171" depart="2433.20" type="smallTrucks">
        <route edges="east_florentino_0 north_osmena_2 east_luna_0 east_luna_1 east_luna_2" />
    </vehicle>
    <vehicle id="70_172" depart="2447.43" type="smallTrucks">
        <route edges="east_florentino_0 south_osmena_2 east_recto_1 south_corrales_2" />
    </vehicle>
    <vehicle id="70_173" depart="2461.66" type="smallTrucks">
        <route edges="south_osmena_0 south_osmena_1 west_florentino_0" />
    </vehicle>
    <vehicle id="70_174" depart="2475.89" type="smallTrucks">
        <route edges="west_recto_0 west_recto_1 west_recto_2 south_osmena_3" />
    </vehicle>
    <vehicle id="70_175" depart="2490.12" type="smallTrucks">
        <route edges="east_florentino_0 south_osmena_2 south_osmena_3" />
    </vehicle>
    <vehicle id="70_176" depart="2504.35" type="smallTrucks">
        <route edges="south_corrales_0 south_corrales_1 south_corrales_2" />
    </vehicle>
    <vehicle id="70_177" depart="2518.58" type="smallTrucks">
        <route edges="north_osmena_0 north_osmena_1 north_osmena_2 north_osmena_3" />
    </vehicle>
    <vehicle id="70_178" depart="2532.81" type="smallTrucks">
        <route edges="west_luna_0 north_corrales_2" />
    </vehicle>
    <vehicle id="70_179" depart="2547.04" type="smallTrucks">
        <route edges="east_recto_0 east_recto_1 south_corrales_2" />
    </vehicle>
    <vehicle id="70_180" depart="2561.26" type="smallTrucks">
        <route edges="east_recto_0 east_recto_1 south_corrales_2" />
    </vehicle>
    <vehicle id="70_181" depart="2575.49" type="smallTrucks">
        <route edges="south_roa_0 west_luna_2 south_osmena_1 west_florentino_0" />
    </vehicle>
    <vehicle id="70_182" depart="2589.72" type="smallTrucks">
        <route edges="east_recto_0 east_recto_1 east_recto_2" />
    </vehicle>
    <vehicle id="70_183" depart="2603.95" type="smallTrucks">
        <route edges="west_luna_0 west_luna_1 north_roa_1 south_roa_0 east_luna_1 south_corrales_1 south_corrales_2" />
    </vehicle>
    <vehicle id="70_184" depart="2618.18" type="smallTrucks">
        <route edges="east_recto_0 east_recto_1 east_recto_2" />
    </vehicle>
    <vehicle id="70_185" depart="2632.41" type="smallTrucks">
        <route edges="east_recto_0 north_osmena_1 north_osmena_2 east_luna_0 north_roa_1" />
    </vehicle>
    <vehicle id="70_186" depart="2646.64" type="smallTrucks">
        <route edges="east_recto_0 east_recto_1 north_corrales_1 north_corrales_2" />
    </vehicle>
    <vehicle id="70_187" depart="2660.87" type="smallTrucks">
        <route edges="east_recto_0 east_recto_1 east_recto_2" />
    </vehicle>
    <vehicle id="70_188" depart="2675.10" type="smallTrucks">
        <route edges="east_recto_0 east_recto_1 east_recto_2" />
    </vehicle>
    <vehicle id="70_189" depart="2689.33" type="smallTrucks">