<?xml version="1.0" encoding="UTF-8"?>

<!-- generated on 2023-03-30 00:08:37 by Eclipse SUMO jtrrouter Version 1.15.0
<configuration xmlns:xsi="http://www.w3.org/2001/XMLSchema-instance" xsi:noNamespaceSchemaLocation="http://sumo.dlr.de/xsd/jtrrouterConfiguration.xsd">

    <input>
        <net-file value="D:\School Documents\Thesis\DQL_AveEntLumRei\Simulation_Environment\Main MADDPG\osm.net.xml"/>
        <route-files value="flows.tmp.xml"/>
        <turn-ratio-files value="Route Files\motorela.xml"/>
    </input>

    <output>
        <output-file value="Simulation_Environment\Main MADDPG\Final Route Folder\motorela_route.xml"/>
    </output>

    <processing>
        <accept-all-destinations value="true"/>
    </processing>

</configuration>
-->

<routes xmlns:xsi="http://www.w3.org/2001/XMLSchema-instance" xsi:noNamespaceSchemaLocation="http://sumo.dlr.de/xsd/routes_file.xsd">
    <vType accel="2.0" decel="4.5" sigma="0.5" length="2.0" minGap="0.5" maxSpeed="30.0" guiShape="bicycle" color="255,0,0" id="motorela"/>
    <vehicle id="geast_florentino_0.0" depart="0.00">
        <route edges="east_florentino_0 south_osmena_2 south_osmena_3"/>
    </vehicle>
    <vehicle id="geast_luna_0.0" depart="0.00">
        <route edges="east_luna_0 east_luna_1 east_luna_2"/>
    </vehicle>
    <vehicle id="geast_luna_1.0" depart="0.00">
        <route edges="east_luna_1 east_luna_2"/>
    </vehicle>
    <vehicle id="geast_recto_0.0" depart="0.00">
        <route edges="east_recto_0 east_recto_1 east_recto_2 east_recto_3"/>
    </vehicle>
    <vehicle id="geast_recto_1.0" depart="0.00">
        <route edges="east_recto_1 east_recto_2 east_recto_3"/>
    </vehicle>
    <vehicle id="geast_recto_2.0" depart="0.00">
        <route edges="east_recto_2 east_recto_3"/>
    </vehicle>
    <vehicle id="gnorth_corrales_0.0" depart="0.00">
        <route edges="north_corrales_0 north_corrales_1 north_corrales_2"/>
    </vehicle>
    <vehicle id="gnorth_corrales_1.0" depart="0.00">
        <route edges="north_corrales_1 north_corrales_2"/>
    </vehicle>
    <vehicle id="gnorth_osmena_0.0" depart="0.00">
        <route edges="north_osmena_0 north_osmena_1 north_osmena_2 east_luna_0 south_roa_1 west_recto_2 west_recto_3"/>
    </vehicle>
    <vehicle id="gnorth_osmena_1.0" depart="0.00">
        <route edges="north_osmena_1 north_osmena_2 north_osmena_3"/>
    </vehicle>
    <vehicle id="gnorth_osmena_2.0" depart="0.00">
        <route edges="north_osmena_2 north_osmena_3"/>
    </vehicle>
    <vehicle id="gnorth_roa_0.0" depart="0.00">
        <route edges="north_roa_0 north_roa_1"/>
    </vehicle>
    <vehicle id="gsouth_corrales_0.0" depart="0.00">
        <route edges="south_corrales_0 west_luna_1 west_luna_2 south_osmena_1 south_osmena_2 south_osmena_3"/>
    </vehicle>
    <vehicle id="gsouth_corrales_1.0" depart="0.00">
        <route edges="south_corrales_1 east_recto_3"/>
    </vehicle>
    <vehicle id="gsouth_osmena_0.0" depart="0.00">
        <route edges="south_osmena_0 east_luna_0 east_luna_1 south_corrales_1 east_recto_3"/>
    </vehicle>
    <vehicle id="gsouth_osmena_1.0" depart="0.00">
        <route edges="south_osmena_1 west_florentino_0"/>
    </vehicle>
    <vehicle id="gsouth_osmena_2.0" depart="0.00">
        <route edges="south_osmena_2 east_recto_1 east_recto_2 east_recto_3"/>
    </vehicle>
    <vehicle id="gsouth_roa_0.0" depart="0.00">
        <route edges="south_roa_0 east_luna_1 east_luna_2"/>
    </vehicle>
    <vehicle id="gwest_luna_0.0" depart="0.00">
        <route edges="west_luna_0 north_corrales_2"/>
    </vehicle>
    <vehicle id="gwest_luna_1.0" depart="0.00">
        <route edges="west_luna_1 west_luna_2 north_osmena_3"/>
    </vehicle>
    <vehicle id="gwest_luna_2.0" depart="0.00">
        <route edges="west_luna_2 north_osmena_3"/>
    </vehicle>
    <vehicle id="gwest_recto_0.0" depart="0.00">
        <route edges="west_recto_0 west_recto_1 west_recto_2 south_osmena_3"/>
    </vehicle>
    <vehicle id="gwest_recto_1.0" depart="0.00">
        <route edges="west_recto_1 west_recto_2 north_osmena_1 north_osmena_2 north_osmena_3"/>
    </vehicle>
    <vehicle id="gwest_recto_2.0" depart="0.00">
        <route edges="west_recto_2 west_recto_3"/>
    </vehicle>
    <vehicle id="gwest_recto_0.1" depart="144.00">
        <route edges="west_recto_0 west_recto_1 west_recto_2 west_recto_3"/>
    </vehicle>
    <vehicle id="gsouth_corrales_0.1" depart="180.00">
        <route edges="south_corrales_0 south_corrales_1 south_corrales_2"/>
    </vehicle>
    <vehicle id="geast_recto_2.1" depart="189.47">
        <route edges="east_recto_2 east_recto_3"/>
    </vehicle>
    <vehicle id="gnorth_corrales_1.1" depart="200.00">
        <route edges="north_corrales_1 north_corrales_2"/>
    </vehicle>
    <vehicle id="gwest_recto_2.1" depart="200.00">
        <route edges="west_recto_2 west_recto_3"/>
    </vehicle>
    <vehicle id="gsouth_osmena_1.1" depart="240.00">
        <route edges="south_osmena_1 south_osmena_2 south_osmena_3"/>
    </vehicle>
    <vehicle id="gwest_recto_0.2" depart="288.00">
        <route edges="west_recto_0 south_corrales_2"/>
    </vehicle>
    <vehicle id="geast_recto_0.1" depart="300.00">
        <route edges="east_recto_0 east_recto_1 east_recto_2 east_recto_3"/>
    </vehicle>
    <vehicle id="gnorth_osmena_1.1" depart="300.00">
        <route edges="north_osmena_1 west_florentino_0"/>
    </vehicle>
    <vehicle id="geast_recto_1.1" depart="327.27">
        <route edges="east_recto_1 east_recto_2 east_recto_3"/>
    </vehicle>
    <vehicle id="gnorth_osmena_2.1" depart="360.00">
        <route edges="north_osmena_2 north_osmena_3"/>
    </vehicle>
    <vehicle id="gsouth_corrales_0.2" depart="360.00">
        <route edges="south_corrales_0 south_corrales_1 south_corrales_2"/>
    </vehicle>
    <vehicle id="gwest_luna_1.1" depart="360.00">
        <route edges="west_luna_1 north_roa_1"/>
    </vehicle>
    <vehicle id="geast_recto_2.2" depart="378.95">
        <route edges="east_recto_2 east_recto_3"/>
    </vehicle>
    <vehicle id="gnorth_corrales_1.2" depart="400.00">
        <route edges="north_corrales_1 north_corrales_2"/>
    </vehicle>
    <vehicle id="gwest_luna_0.1" depart="400.00">
        <route edges="west_luna_0 north_corrales_2"/>
    </vehicle>
    <vehicle id="gwest_recto_2.2" depart="400.00">
        <route edges="west_recto_2 north_osmena_1 north_osmena_2 north_osmena_3"/>
    </vehicle>
    <vehicle id="gwest_recto_0.3" depart="432.00">
        <route edges="west_recto_0 west_recto_1 west_recto_2 south_osmena_3"/>
    </vehicle>
    <vehicle id="geast_luna_0.1" depart="450.00">
        <route edges="east_luna_0 north_roa_1"/>
    </vehicle>
    <vehicle id="geast_luna_1.1" depart="450.00">
        <route edges="east_luna_1 east_luna_2"/>
    </vehicle>
    <vehicle id="gsouth_corrales_1.1" depart="450.00">
        <route edges="south_corrales_1 south_corrales_2"/>
    </vehicle>
    <vehicle id="gsouth_osmena_1.2" depart="480.00">
        <route edges="south_osmena_1 south_osmena_2 south_osmena_3"/>
    </vehicle>
    <vehicle id="gnorth_corrales_0.1" depart="514.29">
        <route edges="north_corrales_0 north_corrales_1 north_corrales_2"/>
    </vehicle>
    <vehicle id="gsouth_roa_0.1" depart="514.29">
        <route edges="south_roa_0 south_roa_1 west_recto_2 west_recto_3"/>
    </vehicle>
    <vehicle id="gsouth_corrales_0.3" depart="540.00">
        <route edges="south_corrales_0 south_corrales_1 south_corrales_2"/>
    </vehicle>
    <vehicle id="geast_recto_2.3" depart="568.42">
        <route edges="east_recto_2 east_recto_3"/>
    </vehicle>
    <vehicle id="gwest_recto_0.4" depart="576.00">
        <route edges="west_recto_0 west_recto_1 west_recto_2 west_recto_3"/>
    </vehicle>
    <vehicle id="geast_recto_0.2" depart="600.00">
        <route edges="east_recto_0 east_recto_1 east_recto_2 east_recto_3"/>
    </vehicle>
    <vehicle id="gnorth_corrales_1.3" depart="600.00">
        <route edges="north_corrales_1 north_corrales_2"/>
    </vehicle>
    <vehicle id="gnorth_osmena_1.2" depart="600.00">
        <route edges="north_osmena_1 west_florentino_0"/>
    </vehicle>
    <vehicle id="gwest_recto_2.3" depart="600.00">
        <route edges="west_recto_2 west_recto_3"/>
    </vehicle>
    <vehicle id="geast_recto_1.2" depart="654.54">
        <route edges="east_recto_1 east_recto_2 east_recto_3"/>
    </vehicle>
    <vehicle id="gnorth_osmena_2.2" depart="720.00">
        <route edges="north_osmena_2 north_osmena_3"/>
    </vehicle>
    <vehicle id="gsouth_corrales_0.4" depart="720.00">
        <route edges="south_corrales_0 south_corrales_1 south_corrales_2"/>
    </vehicle>
    <vehicle id="gsouth_osmena_0.1" depart="720.00">
        <route edges="south_osmena_0 east_luna_0 east_luna_1 south_corrales_1 west_recto_1 west_recto_2 west_recto_3"/>
    </vehicle>
    <vehicle id="gsouth_osmena_1.3" depart="720.00">
        <route edges="south_osmena_1 south_osmena_2 south_osmena_3"/>
    </vehicle>
    <vehicle id="gsouth_osmena_2.1" depart="720.00">
        <route edges="south_osmena_2 east_recto_1 east_recto_2 east_recto_3"/>
    </vehicle>
    <vehicle id="gwest_luna_1.2" depart="720.00">
        <route edges="west_luna_1 west_luna_2 north_osmena_3"/>
    </vehicle>
    <vehicle id="gwest_recto_0.5" depart="720.00">
        <route edges="west_recto_0 west_recto_1 west_recto_2 west_recto_3"/>
    </vehicle>
    <vehicle id="geast_recto_2.4" depart="757.89">
        <route edges="east_recto_2 north_corrales_1 north_corrales_2"/>
    </vehicle>
    <vehicle id="gnorth_corrales_1.4" depart="800.00">
        <route edges="north_corrales_1 north_corrales_2"/>
    </vehicle>
    <vehicle id="gwest_luna_0.2" depart="800.00">
        <route edges="west_luna_0 north_corrales_2"/>
    </vehicle>
    <vehicle id="gwest_recto_2.4" depart="800.00">
        <route edges="west_recto_2 west_recto_3"/>
    </vehicle>
    <vehicle id="gwest_recto_0.6" depart="864.00">
        <route edges="west_recto_0 west_recto_1 west_recto_2 south_osmena_3"/>
    </vehicle>
    <vehicle id="geast_luna_0.2" depart="900.00">
        <route edges="east_luna_0 east_luna_1 south_corrales_1 south_corrales_2"/>
    </vehicle>
    <vehicle id="geast_luna_1.2" depart="900.00">
        <route edges="east_luna_1 east_luna_2"/>
    </vehicle>
    <vehicle id="geast_recto_0.3" depart="900.00">
        <route edges="east_recto_0 east_recto_1 east_recto_2 east_recto_3"/>
    </vehicle>
    <vehicle id="gnorth_osmena_1.3" depart="900.00">
        <route edges="north_osmena_1 north_osmena_2 north_osmena_3"/>
    </vehicle>
    <vehicle id="gnorth_roa_0.1" depart="900.00">
        <route edges="north_roa_0 north_roa_1"/>
    </vehicle>
    <vehicle id="gsouth_corrales_0.5" depart="900.00">
        <route edges="south_corrales_0 south_corrales_1 west_recto_1 west_recto_2 west_recto_3"/>
    </vehicle>
    <vehicle id="gsouth_corrales_1.2" depart="900.00">
        <route edges="south_corrales_1 west_recto_1 north_roa_0 north_roa_1"/>
    </vehicle>
    <vehicle id="gwest_recto_1.1" depart="900.00">
        <route edges="west_recto_1 west_recto_2 west_recto_3"/>
    </vehicle>
    <vehicle id="geast_recto_2.5" depart="947.37">
        <route edges="east_recto_2 east_recto_3"/>
    </vehicle>
    <vehicle id="gsouth_osmena_1.4" depart="960.00">
        <route edges="south_osmena_1 south_osmena_2 south_osmena_3"/>
    </vehicle>
    <vehicle id="geast_recto_1.3" depart="981.82">
        <route edges="east_recto_1 east_recto_2 east_recto_3"/>
    </vehicle>
    <vehicle id="gnorth_corrales_1.5" depart="1000.00">
        <route edges="north_corrales_1 north_corrales_2"/>
    </vehicle>
    <vehicle id="gwest_recto_2.5" depart="1000.00">
        <route edges="west_recto_2 west_recto_3"/>
    </vehicle>
    <vehicle id="gwest_recto_0.7" depart="1008.00">
        <route edges="west_recto_0 west_recto_1 north_roa_0 west_luna_2 south_osmena_1 south_osmena_2 west_recto_3"/>
    </vehicle>
    <vehicle id="gnorth_corrales_0.2" depart="1028.57">
        <route edges="north_corrales_0 north_corrales_1 north_corrales_2"/>
    </vehicle>
    <vehicle id="gsouth_roa_0.2" depart="1028.57">
        <route edges="south_roa_0 west_luna_2 north_osmena_3"/>
    </vehicle>
    <vehicle id="gnorth_osmena_2.3" depart="1080.00">
        <route edges="north_osmena_2 north_osmena_3"/>
    </vehicle>
    <vehicle id="gsouth_corrales_0.6" depart="1080.00">
        <route edges="south_corrales_0 south_corrales_1 east_recto_3"/>
    </vehicle>
    <vehicle id="gwest_luna_1.3" depart="1080.00">
        <route edges="west_luna_1 north_roa_1"/>
    </vehicle>
    <vehicle id="geast_recto_2.6" depart="1136.84">
        <route edges="east_recto_2 east_recto_3"/>
    </vehicle>
    <vehicle id="gwest_recto_0.8" depart="1152.00">
        <route edges="west_recto_0 west_recto_1 west_recto_2 west_recto_3"/>
    </vehicle>
    <vehicle id="geast_recto_0.4" depart="1200.00">
        <route edges="east_recto_0 east_recto_1 east_recto_2 east_recto_3"/>
    </vehicle>
    <vehicle id="gnorth_corrales_1.6" depart="1200.00">
        <route edges="north_corrales_1 north_corrales_2"/>
    </vehicle>
    <vehicle id="gnorth_osmena_1.4" depart="1200.00">
        <route edges="north_osmena_1 north_osmena_2 north_osmena_3"/>
    </vehicle>
    <vehicle id="gsouth_osmena_1.5" depart="1200.00">
        <route edges="south_osmena_1 south_osmena_2 east_recto_1 east_recto_2 east_recto_3"/>
    </vehicle>
    <vehicle id="gwest_luna_0.3" depart="1200.00">
        <route edges="west_luna_0 north_corrales_2"/>
    </vehicle>
    <vehicle id="gwest_recto_2.6" depart="1200.00">
        <route edges="west_recto_2 west_recto_3"/>
    </vehicle>
    <vehicle id="gsouth_corrales_0.7" depart="1260.00">
        <route edges="south_corrales_0 south_corrales_1 south_corrales_2"/>
    </vehicle>
    <vehicle id="gwest_recto_0.9" depart="1296.00">
        <route edges="west_recto_0 west_recto_1 west_recto_2 south_osmena_3"/>
    </vehicle>
    <vehicle id="geast_recto_1.4" depart="1309.09">
        <route edges="east_recto_1 east_recto_2 north_corrales_1 north_corrales_2"/>
    </vehicle>
    <vehicle id="geast_recto_2.7" depart="1326.31">
        <route edges="east_recto_2 north_corrales_1 north_corrales_2"/>
    </vehicle>
    <vehicle id="geast_luna_0.3" depart="1350.00">
        <route edges="east_luna_0 north_roa_1"/>
    </vehicle>
    <vehicle id="geast_luna_1.3" depart="1350.00">
        <route edges="east_luna_1 east_luna_2"/>
    </vehicle>
    <vehicle id="gsouth_corrales_1.3" depart="1350.00">
        <route edges="south_corrales_1 east_recto_3"/>
    </vehicle>
    <vehicle id="gnorth_corrales_1.7" depart="1400.00">
        <route edges="north_corrales_1 north_corrales_2"/>
    </vehicle>
    <vehicle id="gwest_recto_2.7" depart="1400.00">
        <route edges="west_recto_2 north_osmena_1 north_osmena_2 north_osmena_3"/>
    </vehicle>
    <vehicle id="gnorth_osmena_2.4" depart="1440.00">
        <route edges="north_osmena_2 north_osmena_3"/>
    </vehicle>
    <vehicle id="gsouth_corrales_0.8" depart="1440.00">
        <route edges="south_corrales_0 south_corrales_1 south_corrales_2"/>
    </vehicle>
    <vehicle id="gsouth_osmena_0.2" depart="1440.00">
        <route edges="south_osmena_0 east_luna_0 east_luna_1 east_luna_2"/>
    </vehicle>
    <vehicle id="gsouth_osmena_1.6" depart="1440.00">
        <route edges="south_osmena_1 south_osmena_2 south_osmena_3"/>
    </vehicle>
    <vehicle id="gsouth_osmena_2.2" depart="1440.00">
        <route edges="south_osmena_2 south_osmena_3"/>
    </vehicle>
    <vehicle id="gwest_luna_1.4" depart="1440.00">
        <route edges="west_luna_1 west_luna_2 north_osmena_3"/>
    </vehicle>
    <vehicle id="gwest_recto_0.10" depart="1440.00">
        <route edges="west_recto_0 west_recto_1 west_recto_2 north_osmena_1 north_osmena_2 east_luna_0 east_luna_1 east_luna_2"/>
    </vehicle>
    <vehicle id="geast_recto_0.5" depart="1500.00">
        <route edges="east_recto_0 east_recto_1 east_recto_2 north_corrales_1 north_corrales_2"/>
    </vehicle>
    <vehicle id="gnorth_osmena_1.5" depart="1500.00">
        <route edges="north_osmena_1 west_florentino_0"/>
    </vehicle>
    <vehicle id="geast_recto_2.8" depart="1515.78">
        <route edges="east_recto_2 east_recto_3"/>
    </vehicle>
    <vehicle id="gnorth_corrales_0.3" depart="1542.86">
        <route edges="north_corrales_0 north_corrales_1 north_corrales_2"/>
    </vehicle>
    <vehicle id="gsouth_roa_0.3" depart="1542.86">
        <route edges="south_roa_0 east_luna_1 east_luna_2"/>
    </vehicle>
    <vehicle id="gwest_recto_0.11" depart="1584.00">
        <route edges="west_recto_0 west_recto_1 west_recto_2 west_recto_3"/>
    </vehicle>
    <vehicle id="gnorth_corrales_1.8" depart="1600.00">
        <route edges="north_corrales_1 north_corrales_2"/>
    </vehicle>
    <vehicle id="gwest_luna_0.4" depart="1600.00">
        <route edges="west_luna_0 west_luna_1 south_roa_1 west_recto_2 south_osmena_3"/>
    </vehicle>
    <vehicle id="gwest_recto_2.8" depart="1600.00">
        <route edges="west_recto_2 west_recto_3"/>
    </vehicle>
    <vehicle id="gsouth_corrales_0.9" depart="1620.00">
        <route edges="south_corrales_0 south_corrales_1 east_recto_3"/>
    </vehicle>
    <vehicle id="geast_recto_1.5" depart="1636.36">
        <route edges="east_recto_1 east_recto_2 north_corrales_1 north_corrales_2"/>
    </vehicle>
    <vehicle id="gsouth_osmena_1.7" depart="1680.00">
        <route edges="south_osmena_1 south_osmena_2 east_recto_1 east_recto_2 east_recto_3"/>
    </vehicle>
    <vehicle id="geast_recto_2.9" depart="1705.26">
        <route edges="east_recto_2 east_recto_3"/>
    </vehicle>
    <vehicle id="gwest_recto_0.12" depart="1728.00">
        <route edges="west_recto_0 west_recto_1 west_recto_2 west_recto_3"/>
    </vehicle>
    <vehicle id="geast_luna_0.4" depart="1800.00">
        <route edges="east_luna_0 north_roa_1"/>
    </vehicle>
    <vehicle id="geast_luna_1.4" depart="1800.00">
        <route edges="east_luna_1 south_corrales_1 south_corrales_2"/>
    </vehicle>
    <vehicle id="geast_recto_0.6" depart="1800.00">
        <route edges="east_recto_0 east_recto_1 east_recto_2 north_corrales_1 north_corrales_2"/>
    </vehicle>
    <vehicle id="gnorth_corrales_1.9" depart="1800.00">
        <route edges="north_corrales_1 north_corrales_2"/>
    </vehicle>
    <vehicle id="gnorth_osmena_0.1" depart="1800.00">
        <route edges="north_osmena_0 north_osmena_1 north_osmena_2 north_osmena_3"/>
    </vehicle>
    <vehicle id="gnorth_osmena_1.6" depart="1800.00">
        <route edges="north_osmena_1 north_osmena_2 north_osmena_3"/>
    </vehicle>
    <vehicle id="gnorth_osmena_2.5" depart="1800.00">
        <route edges="north_osmena_2 north_osmena_3"/>
    </vehicle>
    <vehicle id="gnorth_roa_0.2" depart="1800.00">
        <route edges="north_roa_0 north_roa_1"/>
    </vehicle>
    <vehicle id="gsouth_corrales_0.10" depart="1800.00">
        <route edges="south_corrales_0 south_corrales_1 west_recto_1 west_recto_2 north_osmena_1 north_osmena_2 north_osmena_3"/>
    </vehicle>
    <vehicle id="gsouth_corrales_1.4" depart="1800.00">
        <route edges="south_corrales_1 west_recto_1 west_recto_2 west_recto_3"/>
    </vehicle>
    <vehicle id="gwest_luna_1.5" depart="1800.00">
        <route edges="west_luna_1 north_roa_1"/>
    </vehicle>
    <vehicle id="gwest_luna_2.1" depart="1800.00">
        <route edges="west_luna_2 south_osmena_1 south_osmena_2 east_recto_1 east_recto_2 east_recto_3"/>
    </vehicle>
    <vehicle id="gwest_recto_1.2" depart="1800.00">
        <route edges="west_recto_1 west_recto_2 west_recto_3"/>
    </vehicle>
    <vehicle id="gwest_recto_2.9" depart="1800.00">
        <route edges="west_recto_2 west_recto_3"/>
    </vehicle>
    <vehicle id="gwest_recto_0.13" depart="1872.00">
        <route edges="west_recto_0 west_recto_1 west_recto_2 west_recto_3"/>
    </vehicle>
    <vehicle id="geast_recto_2.10" depart="1894.73">
        <route edges="east_recto_2 east_recto_3"/>
    </vehicle>
    <vehicle id="gsouth_osmena_1.8" depart="1920.00">
        <route edges="south_osmena_1 south_osmena_2 west_recto_3"/>
    </vehicle>
    <vehicle id="geast_recto_1.6" depart="1963.63">
        <route edges="east_recto_1 east_recto_2 east_recto_3"/>
    </vehicle>
    <vehicle id="gsouth_corrales_0.11" depart="1980.00">
        <route edges="south_corrales_0 south_corrales_1 south_corrales_2"/>
    </vehicle>
    <vehicle id="gnorth_corrales_1.10" depart="2000.00">
        <route edges="north_corrales_1 north_corrales_2"/>
    </vehicle>
    <vehicle id="gwest_luna_0.5" depart="2000.00">
        <route edges="west_luna_0 west_luna_1 west_luna_2 south_osmena_1 south_osmena_2 south_osmena_3"/>
    </vehicle>
    <vehicle id="gwest_recto_2.10" depart="2000.00">
        <route edges="west_recto_2 west_recto_3"/>
    </vehicle>
    <vehicle id="gwest_recto_0.14" depart="2016.00">
        <route edges="west_recto_0 west_recto_1 west_recto_2 north_osmena_1 west_florentino_0"/>
    </vehicle>
    <vehicle id="gnorth_corrales_0.4" depart="2057.14">
        <route edges="north_corrales_0 north_corrales_1 east_luna_2"/>
    </vehicle>
    <vehicle id="gsouth_roa_0.4" depart="2057.14">
        <route edges="south_roa_0 west_luna_2 south_osmena_1 south_osmena_2 east_recto_1 east_recto_2 east_recto_3"/>
    </vehicle>
    <vehicle id="geast_recto_2.11" depart="2084.20">
        <route edges="east_recto_2 east_recto_3"/>
    </vehicle>
    <vehicle id="geast_recto_0.7" depart="2100.00">
        <route edges="east_recto_0 east_recto_1 east_recto_2 east_recto_3"/>
    </vehicle>
    <vehicle id="gnorth_osmena_1.7" depart="2100.00">
        <route edges="north_osmena_1 west_florentino_0"/>
    </vehicle>
    <vehicle id="gnorth_osmena_2.6" depart="2160.00">
        <route edges="north_osmena_2 north_osmena_3"/>
    </vehicle>
    <vehicle id="gsouth_corrales_0.12" depart="2160.00">
        <route edges="south_corrales_0 south_corrales_1 west_recto_1 west_recto_2 south_osmena_3"/>
    </vehicle>
    <vehicle id="gsouth_osmena_0.3" depart="2160.00">
        <route edges="south_osmena_0 south_osmena_1 south_osmena_2 west_recto_3"/>
    </vehicle>
    <vehicle id="gsouth_osmena_1.9" depart="2160.00">
        <route edges="south_osmena_1 south_osmena_2 east_recto_1 east_recto_2 east_recto_3"/>
    </vehicle>
    <vehicle id="gsouth_osmena_2.3" depart="2160.00">
        <route edges="south_osmena_2 east_recto_1 east_recto_2 east_recto_3"/>
    </vehicle>
    <vehicle id="gwest_luna_1.6" depart="2160.00">
        <route edges="west_luna_1 west_luna_2 north_osmena_3"/>
    </vehicle>
    <vehicle id="gwest_recto_0.15" depart="2160.00">
        <route edges="west_recto_0 west_recto_1 west_recto_2 north_osmena_1 west_florentino_0"/>
    </vehicle>
    <vehicle id="gnorth_corrales_1.11" depart="2200.00">
        <route edges="north_corrales_1 north_corrales_2"/>
    </vehicle>
    <vehicle id="gwest_recto_2.11" depart="2200.00">
        <route edges="west_recto_2 south_osmena_3"/>
    </vehicle>
    <vehicle id="geast_luna_0.5" depart="2250.00">
        <route edges="east_luna_0 east_luna_1 east_luna_2"/>
    </vehicle>
    <vehicle id="geast_luna_1.5" depart="2250.00">
        <route edges="east_luna_1 south_corrales_1 south_corrales_2"/>
    </vehicle>
    <vehicle id="gsouth_corrales_1.5" depart="2250.00">
        <route edges="south_corrales_1 south_corrales_2"/>
    </vehicle>
    <vehicle id="geast_recto_2.12" depart="2273.68">
        <route edges="east_recto_2 east_recto_3"/>
    </vehicle>
    <vehicle id="geast_recto_1.7" depart="2290.90">
        <route edges="east_recto_1 east_recto_2 north_corrales_1 north_corrales_2"/>
    </vehicle>
    <vehicle id="gwest_recto_0.16" depart="2304.00">
        <route edges="west_recto_0 west_recto_1 west_recto_2 west_recto_3"/>
    </vehicle>
    <vehicle id="gsouth_corrales_0.13" depart="2340.00">
        <route edges="south_corrales_0 south_corrales_1 south_corrales_2"/>
    </vehicle>
    <vehicle id="geast_recto_0.8" depart="2400.00">
        <route edges="east_recto_0 east_recto_1 east_recto_2 east_recto_3"/>
    </vehicle>
    <vehicle id="gnorth_corrales_1.12" depart="2400.00">
        <route edges="north_corrales_1 north_corrales_2"/>
    </vehicle>
    <vehicle id="gnorth_osmena_1.8" depart="2400.00">
        <route edges="north_osmena_1 north_osmena_2 north_osmena_3"/>
    </vehicle>
    <vehicle id="gsouth_osmena_1.10" depart="2400.00">
        <route edges="south_osmena_1 south_osmena_2 east_recto_1 east_recto_2 east_recto_3"/>
    </vehicle>
    <vehicle id="gwest_luna_0.6" depart="2400.00">
        <route edges="west_luna_0 north_corrales_2"/>
    </vehicle>
    <vehicle id="gwest_recto_2.12" depart="2400.00">
        <route edges="west_recto_2 west_recto_3"/>
    </vehicle>
    <vehicle id="gwest_recto_0.17" depart="2448.00">
        <route edges="west_recto_0 west_recto_1 north_roa_0 east_luna_1 east_luna_2"/>
    </vehicle>
    <vehicle id="geast_recto_2.13" depart="2463.15">
        <route edges="east_recto_2 south_corrales_2"/>
    </vehicle>
    <vehicle id="gnorth_osmena_2.7" depart="2520.00">
        <route edges="north_osmena_2 north_osmena_3"/>
    </vehicle>
    <vehicle id="gsouth_corrales_0.14" depart="2520.00">
        <route edges="south_corrales_0 south_corrales_1 south_corrales_2"/>
    </vehicle>
    <vehicle id="gwest_luna_1.7" depart="2520.00">
        <route edges="west_luna_1 west_luna_2 south_osmena_1 south_osmena_2 south_osmena_3"/>
    </vehicle>
    <vehicle id="gnorth_corrales_0.5" depart="2571.43">
        <route edges="north_corrales_0 north_corrales_1 north_corrales_2"/>
    </vehicle>
    <vehicle id="gsouth_roa_0.5" depart="2571.43">
        <route edges="south_roa_0 south_roa_1 west_recto_2 west_recto_3"/>
    </vehicle>
    <vehicle id="gwest_recto_0.18" depart="2592.00">
        <route edges="west_recto_0 west_recto_1 north_roa_0 north_roa_1"/>
    </vehicle>
    <vehicle id="gnorth_corrales_1.13" depart="2600.00">
        <route edges="north_corrales_1 north_corrales_2"/>
    </vehicle>
    <vehicle id="gwest_recto_2.13" depart="2600.00">
        <route edges="west_recto_2 west_recto_3"/>
    </vehicle>
    <vehicle id="geast_recto_1.8" depart="2618.18">
        <route edges="east_recto_1 east_recto_2 east_recto_3"/>
    </vehicle>
    <vehicle id="gsouth_osmena_1.11" depart="2640.00">
        <route edges="south_osmena_1 south_osmena_2 west_recto_3"/>
    </vehicle>
    <vehicle id="geast_recto_2.14" depart="2652.62">
        <route edges="east_recto_2 north_corrales_1 north_corrales_2"/>
    </vehicle>
    <vehicle id="geast_luna_0.6" depart="2700.00">
        <route edges="east_luna_0 east_luna_1 east_luna_2"/>
    </vehicle>
    <vehicle id="geast_luna_1.6" depart="2700.00">
        <route edges="east_luna_1 east_luna_2"/>
    </vehicle>
    <vehicle id="geast_recto_0.9" depart="2700.00">
        <route edges="east_recto_0 east_recto_1 east_recto_2 east_recto_3"/>
    </vehicle>
    <vehicle id="gnorth_osmena_1.9" depart="2700.00">
        <route edges="north_osmena_1 west_florentino_0"/>
    </vehicle>
    <vehicle id="gnorth_roa_0.3" depart="2700.00">
        <route edges="north_roa_0 north_roa_1"/>
    </vehicle>
    <vehicle id="gsouth_corrales_0.15" depart="2700.00">
        <route edges="south_corrales_0 south_corrales_1 east_recto_3"/>
    </vehicle>
    <vehicle id="gsouth_corrales_1.6" depart="2700.00">
        <route edges="south_corrales_1 west_recto_1 west_recto_2 west_recto_3"/>
    </vehicle>
    <vehicle id="gwest_recto_1.3" depart="2700.00">
        <route edges="west_recto_1 west_recto_2 west_recto_3"/>
    </vehicle>
    <vehicle id="gwest_recto_0.19" depart="2736.00">
        <route edges="west_recto_0 west_recto_1 west_recto_2 west_recto_3"/>
    </vehicle>
    <vehicle id="gnorth_corrales_1.14" depart="2800.00">
        <route edges="north_corrales_1 north_corrales_2"/>
    </vehicle>
    <vehicle id="gwest_luna_0.7" depart="2800.00">
        <route edges="west_luna_0 north_corrales_2"/>
    </vehicle>
    <vehicle id="gwest_recto_2.14" depart="2800.00">
        <route edges="west_recto_2 west_recto_3"/>
    </vehicle>
    <vehicle id="geast_recto_2.15" depart="2842.10">
        <route edges="east_recto_2 east_recto_3"/>
    </vehicle>
    <vehicle id="gnorth_osmena_2.8" depart="2880.00">
        <route edges="north_osmena_2 north_osmena_3"/>
    </vehicle>
    <vehicle id="gsouth_corrales_0.16" depart="2880.00">
        <route edges="south_corrales_0 south_corrales_1 east_recto_3"/>
    </vehicle>
    <vehicle id="gsouth_osmena_0.4" depart="2880.00">
        <route edges="south_osmena_0 south_osmena_1 south_osmena_2 south_osmena_3"/>
    </vehicle>
    <vehicle id="gsouth_osmena_1.12" depart="2880.00">
        <route edges="south_osmena_1 west_florentino_0"/>
    </vehicle>
    <vehicle id="gsouth_osmena_2.4" depart="2880.00">
        <route edges="south_osmena_2 east_recto_1 east_recto_2 east_recto_3"/>
    </vehicle>
    <vehicle id="gwest_luna_1.8" depart="2880.00">
        <route edges="west_luna_1 west_luna_2 north_osmena_3"/>
    </vehicle>
    <vehicle id="gwest_recto_0.20" depart="2880.00">