<?xml version="1.0" encoding="UTF-8"?>

<!-- generated on 2023-03-18 23:02:01 by Eclipse SUMO netedit Version 1.15.0
<configuration xmlns:xsi="http://www.w3.org/2001/XMLSchema-instance" xsi:noNamespaceSchemaLocation="http://sumo.dlr.de/xsd/netconvertConfiguration.xsd">

    <input>
        <sumo-net-file value="D:\School Documents\Thesis\DQL_AveEntLumRei\Simulation_Environment\Main MADDPG\osm.net.xml"/>
    </input>

    <output>
        <output-file value="D:\School Documents\Thesis\DQL_AveEntLumRei\Simulation_Environment\Main MADDPG\osm.net.xml"/>
        <output.street-names value="true"/>
    </output>

    <processing>
        <geometry.min-radius.fix.railways value="false"/>
        <geometry.max-grade.fix value="false"/>
        <offset.disable-normalization value="true"/>
        <lefthand value="0"/>
    </processing>

    <junctions>
        <no-turnarounds value="true"/>
        <junctions.corner-detail value="5"/>
        <junctions.limit-turn-speed value="5.50"/>
        <rectangular-lane-cut value="0"/>
    </junctions>

    <pedestrian>
        <walkingareas value="0"/>
    </pedestrian>

</configuration>
-->

<net version="1.9" junctionCornerDetail="5" limitTurnSpeed="5.50" xmlns:xsi="http://www.w3.org/2001/XMLSchema-instance" xsi:noNamespaceSchemaLocation="http://sumo.dlr.de/xsd/net_file.xsd">

    <location netOffset="-680716.80,-937251.29" convBoundary="728.72,669.78,1506.41,1294.14" origBoundary="124.641664,8.475486,124.656136,8.490905" projParameter="+proj=utm +zone=51 +ellps=WGS84 +datum=WGS84 +units=m +no_defs"/>

    <type id="edgeType_0"/>
    <type id="highway.bridleway" priority="1" numLanes="1" speed="2.78" allow="pedestrian" oneway="1" width="2.00"/>
    <type id="highway.bus_guideway" priority="1" numLanes="1" speed="27.78" allow="bus" oneway="1"/>
    <type id="highway.cycleway" priority="1" numLanes="1" speed="8.33" allow="bicycle" oneway="1" width="1.00"/>
    <type id="highway.footway" priority="1" numLanes="1" speed="2.78" allow="pedestrian" oneway="1" width="2.00"/>
    <type id="highway.ford" priority="1" numLanes="1" speed="2.78" allow="army" oneway="1"/>
    <type id="highway.living_street" priority="2" numLanes="1" speed="2.78" disallow="tram rail_urban rail rail_electric rail_fast ship" oneway="1"/>
    <type id="highway.motorway" priority="14" numLanes="2" speed="39.44" allow="private emergency authority army vip passenger hov taxi bus coach delivery truck trailer motorcycle evehicle custom1 custom2" oneway="1"/>
    <type id="highway.motorway_link" priority="9" numLanes="1" speed="22.22" allow="private emergency authority army vip passenger hov taxi bus coach delivery truck trailer motorcycle evehicle custom1 custom2" oneway="1"/>
    <type id="highway.path" priority="1" numLanes="1" speed="2.78" allow="pedestrian bicycle" oneway="1" width="2.00"/>
    <type id="highway.pedestrian" priority="1" numLanes="1" speed="2.78" allow="pedestrian" oneway="1" width="2.00"/>
    <type id="highway.primary" priority="12" numLanes="2" speed="27.78" disallow="tram rail_urban rail rail_electric rail_fast ship" oneway="1"/>
    <type id="highway.primary_link" priority="7" numLanes="1" speed="22.22" disallow="tram rail_urban rail rail_electric rail_fast ship" oneway="1"/>
    <type id="highway.raceway" priority="15" numLanes="2" speed="83.33" allow="vip" oneway="1"/>
    <type id="highway.residential" priority="3" numLanes="1" speed="13.89" disallow="tram rail_urban rail rail_electric rail_fast ship" oneway="1"/>
    <type id="highway.secondary" priority="11" numLanes="2" speed="27.78" disallow="tram rail_urban rail rail_electric rail_fast ship" oneway="1">
        <laneType index="0"/>
        <laneType index="1" speed="13.89"/>
    </type>
    <type id="highway.secondary_link" priority="6" numLanes="1" speed="22.22" disallow="tram rail_urban rail rail_electric rail_fast ship" oneway="1"/>
    <type id="highway.service" priority="1" numLanes="1" speed="5.56" allow="pedestrian delivery bicycle" oneway="1"/>
    <type id="highway.stairs" priority="1" numLanes="1" speed="1.39" allow="pedestrian" oneway="1" width="2.00"/>
    <type id="highway.step" priority="1" numLanes="1" speed="1.39" allow="pedestrian" oneway="1" width="2.00"/>
    <type id="highway.steps" priority="1" numLanes="1" speed="1.39" allow="pedestrian" oneway="1" width="2.00"/>
    <type id="highway.tertiary" priority="10" numLanes="2" speed="22.22" disallow="tram rail_urban rail rail_electric rail_fast ship" oneway="1">
        <laneType index="0"/>
        <laneType index="1" speed="13.89"/>
    </type>
    <type id="highway.tertiary_link" priority="5" numLanes="1" speed="22.22" disallow="tram rail_urban rail rail_electric rail_fast ship" oneway="1"/>
    <type id="highway.track" priority="1" numLanes="1" speed="5.56" allow="pedestrian motorcycle moped bicycle" oneway="1"/>
    <type id="highway.trunk" priority="13" numLanes="3" speed="27.78" disallow="pedestrian bicycle tram rail_urban rail rail_electric rail_fast ship" oneway="1">
        <laneType index="0"/>
        <laneType index="1"/>
        <laneType index="2" speed="13.89"/>
    </type>
    <type id="highway.trunk_link" priority="8" numLanes="1" speed="22.22" disallow="pedestrian bicycle tram rail_urban rail rail_electric rail_fast ship" oneway="1"/>
    <type id="highway.unclassified" priority="4" numLanes="1" speed="13.89" disallow="tram rail_urban rail rail_electric rail_fast ship" oneway="1"/>
    <type id="highway.unsurfaced" priority="1" numLanes="1" speed="8.33" disallow="tram rail_urban rail rail_electric rail_fast ship" oneway="1"/>
    <type id="railway.highspeed" priority="21" numLanes="1" speed="69.44" allow="rail_fast" oneway="1"/>
    <type id="railway.light_rail" priority="19" numLanes="1" speed="27.78" allow="rail_urban" oneway="1"/>
    <type id="railway.preserved" priority="16" numLanes="1" speed="27.78" allow="rail" oneway="1"/>
    <type id="railway.rail" priority="20" numLanes="1" speed="44.44" allow="rail" oneway="1"/>
    <type id="railway.subway" priority="18" numLanes="1" speed="27.78" allow="rail_urban" oneway="1"/>
    <type id="railway.tram" priority="17" numLanes="1" speed="13.89" allow="tram" oneway="1"/>

    <edge id=":corrales_recto_0" function="internal">
        <lane id=":corrales_recto_0_0" index="0" disallow="pedestrian bicycle tram rail_urban rail rail_electric rail_fast ship" speed="7.29" length="10.56" shape="970.29,1172.00 969.03,1169.88 967.12,1168.60 964.58,1168.18 961.38,1168.60"/>
    </edge>
    <edge id=":corrales_recto_1" function="internal">
        <lane id=":corrales_recto_1_0" index="0" disallow="tram rail_urban rail rail_electric rail_fast ship" speed="8.33" length="32.29" shape="970.29,1172.00 960.37,1141.13"/>
        <lane id=":corrales_recto_1_1" index="1" disallow="tram rail_urban rail rail_electric rail_fast ship" speed="8.33" length="32.29" shape="973.29,1170.89 963.45,1140.26"/>
    </edge>
    <edge id=":corrales_recto_3" function="internal">
        <lane id=":corrales_recto_3_0" index="0" disallow="pedestrian bicycle tram rail_urban rail rail_electric rail_fast ship" speed="9.60" length="23.15" shape="973.29,1170.89 971.59,1163.90 972.22,1158.52 975.19,1154.74 980.49,1152.56"/>
    </edge>
    <edge id=":corrales_recto_4" function="internal">
        <lane id=":corrales_recto_4_0" index="0" disallow="pedestrian bicycle tram rail_urban rail rail_electric rail_fast ship" speed="7.01" length="11.79" shape="981.83,1158.81 979.52,1159.89 978.34,1161.89 978.26,1164.82 979.29,1168.67"/>
    </edge>
    <edge id=":corrales_recto_5" function="internal">
        <lane id=":corrales_recto_5_0" index="0" disallow="pedestrian bicycle tram rail_urban rail rail_electric rail_fast ship" speed="19.45" length="22.28" shape="981.83,1158.81 975.91,1160.37 971.61,1161.96 967.13,1163.64 960.64,1165.49"/>
        <lane id=":corrales_recto_5_1" index="1" disallow="pedestrian bicycle tram rail_urban rail rail_electric rail_fast ship" speed="19.45" length="22.28" shape="981.16,1155.69 975.23,1157.25 970.92,1158.84 966.41,1160.52 959.89,1162.38"/>
    </edge>
    <edge id=":corrales_recto_7" function="internal">
        <lane id=":corrales_recto_7_0" index="0" disallow="pedestrian bicycle tram rail_urban rail rail_electric rail_fast ship" speed="10.96" length="26.18" shape="981.16,1155.69 975.33,1155.73 970.43,1153.18 966.47,1148.02 963.45,1140.26"/>
    </edge>
    <edge id=":corrales_recto_8" function="internal">
        <lane id=":corrales_recto_8_0" index="0" disallow="pedestrian bicycle tram rail_urban rail rail_electric rail_fast ship" speed="8.79" length="16.45" shape="969.57,1138.54 971.53,1143.84 973.89,1147.42 976.65,1149.29 979.82,1149.43"/>
    </edge>
    <edge id=":corrales_recto_9" function="internal">
        <lane id=":corrales_recto_9_0" index="0" disallow="tram rail_urban rail rail_electric rail_fast ship" speed="8.33" length="31.79" shape="969.57,1138.54 979.29,1168.67"/>
        <lane id=":corrales_recto_9_1" index="1" disallow="tram rail_urban rail rail_electric rail_fast ship" speed="8.33" length="31.79" shape="966.49,1139.41 976.29,1169.78"/>
    </edge>
    <edge id=":corrales_recto_11" function="internal">
        <lane id=":corrales_recto_11_0" index="0" disallow="pedestrian bicycle tram rail_urban rail rail_electric rail_fast ship" speed="9.72" length="27.00" shape="966.49,1139.41 968.21,1148.35 967.69,1155.15 964.91,1159.83 959.89,1162.38"/>
    </edge>
    <edge id=":corrales_recto_12" function="internal">
        <lane id=":corrales_recto_12_0" index="0" disallow="pedestrian bicycle tram rail_urban rail rail_electric rail_fast ship" speed="6.32" length="8.99" shape="956.37,1147.75 958.70,1146.92 960.15,1145.54 960.70,1143.61 960.37,1141.13"/>
    </edge>
    <edge id=":corrales_recto_13" function="internal">
        <lane id=":corrales_recto_13_0" index="0" disallow="pedestrian bicycle tram rail_urban rail rail_electric rail_fast ship" speed="11.11" length="23.71" shape="956.37,1147.75 963.52,1147.34 968.75,1148.52 973.65,1149.73 979.82,1149.43"/>
        <lane id=":corrales_recto_13_1" index="1" disallow="pedestrian bicycle tram rail_urban rail rail_electric rail_fast ship" speed="11.11" length="23.71" shape="957.12,1150.86 964.24,1150.46 969.45,1151.64 974.33,1152.85 980.49,1152.56"/>
    </edge>
    <edge id=":corrales_recto_15" function="internal">
        <lane id=":corrales_recto_15_0" index="0" disallow="pedestrian bicycle tram rail_urban rail rail_electric rail_fast ship" speed="9.72" length="26.52" shape="957.87,1153.98 963.42,1154.09 968.34,1156.77 972.63,1162.00 976.29,1169.78"/>
    </edge>
    <edge id=":luna_corrales_0" function="internal">
        <lane id=":luna_corrales_0_0" index="0" disallow="tram rail_urban rail rail_electric rail_fast ship" speed="7.59" length="12.40" shape="843.78,855.14 841.52,852.07 839.08,850.32 836.47,849.90 833.68,850.80"/>
    </edge>
    <edge id=":luna_corrales_1" function="internal">
        <lane id=":luna_corrales_1_0" index="0" disallow="tram rail_urban rail rail_electric rail_fast ship" speed="8.33" length="24.24" shape="843.78,855.14 840.45,849.48 837.58,844.82 834.57,840.26 830.80,834.87"/>
        <lane id=":luna_corrales_1_1" index="1" disallow="tram rail_urban rail rail_electric rail_fast ship" speed="8.33" length="24.24" shape="846.56,853.55 843.20,847.84 840.27,843.09 837.20,838.44 833.40,833.01"/>
    </edge>
    <edge id=":luna_corrales_3" function="internal">
        <lane id=":luna_corrales_3_0" index="0" disallow="tram rail_urban rail rail_electric rail_fast ship" speed="5.85" length="9.12" shape="855.15,843.96 852.60,844.72 851.24,846.05 851.05,847.94 852.04,850.41"/>
    </edge>
    <edge id=":luna_corrales_4" function="internal">
        <lane id=":luna_corrales_4_0" index="0" disallow="tram rail_urban rail rail_electric rail_fast ship" speed="8.33" length="23.26" shape="855.15,843.96 848.86,844.98 844.00,846.14 839.35,847.92 833.68,850.80"/>
        <lane id=":luna_corrales_4_1" index="1" disallow="tram rail_urban rail rail_electric rail_fast ship" speed="8.33" length="23.26" shape="854.67,840.80 848.21,841.88 842.99,843.16 837.98,845.06 832.15,847.99"/>
    </edge>
    <edge id=":luna_corrales_6" function="internal">
        <lane id=":luna_corrales_6_0" index="0" disallow="tram rail_urban rail rail_electric rail_fast ship" speed="8.33" length="16.84" shape="838.61,829.29 841.36,832.14 844.79,833.95 848.91,834.73 853.71,834.47"/>
    </edge>
    <edge id=":luna_corrales_7" function="internal">
        <lane id=":luna_corrales_7_0" index="0" disallow="tram rail_urban rail rail_electric rail_fast ship" speed="8.33" length="24.87" shape="838.61,829.29 842.46,834.81 845.63,839.65 848.65,844.59 852.04,850.41"/>
        <lane id=":luna_corrales_7_1" index="1" disallow="tram rail_urban rail rail_electric rail_fast ship" speed="8.33" length="24.87" shape="836.01,831.15 839.83,836.62 842.95,841.38 845.91,846.23 849.26,852.00"/>
    </edge>
    <edge id=":luna_corrales_9" function="internal">
        <lane id=":luna_corrales_9_0" index="0" disallow="tram rail_urban rail rail_electric rail_fast ship" speed="6.26" length="9.04" shape="829.08,842.38 831.09,840.87 832.05,839.11 831.95,837.11 830.80,834.87"/>
    </edge>
    <edge id=":luna_corrales_10" function="internal">
        <lane id=":luna_corrales_10_0" index="0" disallow="tram rail_urban rail rail_electric rail_fast ship" speed="8.33" length="25.48" shape="829.08,842.38 835.24,839.33 840.98,837.18 846.93,835.66 853.71,834.47"/>
        <lane id=":luna_corrales_10_1" index="1" disallow="tram rail_urban rail rail_electric rail_fast ship" speed="8.33" length="25.48" shape="830.61,845.19 836.61,842.19 841.98,840.17 847.57,838.77 854.19,837.63"/>
    </edge>
    <edge id=":luna_osmena_0" function="internal">
        <lane id=":luna_osmena_0_0" index="0" disallow="tram rail_urban rail rail_electric rail_fast ship" speed="6.95" length="9.83" shape="1257.07,796.52 1256.22,794.21 1254.71,792.65 1252.52,791.86 1249.65,791.82"/>
    </edge>
    <edge id=":luna_osmena_1" function="internal">
        <lane id=":luna_osmena_1_0" index="0" disallow="tram rail_urban rail rail_electric rail_fast ship" speed="8.33" length="20.82" shape="1257.07,796.52 1253.30,776.04"/>
        <lane id=":luna_osmena_1_1" index="1" disallow="tram rail_urban rail rail_electric rail_fast ship" speed="8.33" length="20.82" shape="1260.21,795.93 1256.45,775.47"/>
    </edge>
    <edge id=":luna_osmena_3" function="internal">
        <lane id=":luna_osmena_3_0" index="0" disallow="tram rail_urban rail rail_electric rail_fast ship" speed="3.65" length="1.44" shape="1260.21,795.93 1260.78,794.60"/>
    </edge>
    <edge id=":luna_osmena_10" function="internal">
        <lane id=":luna_osmena_10_0" index="0" disallow="tram rail_urban rail rail_electric rail_fast ship" speed="3.65" length="3.23" shape="1260.78,794.60 1261.49,794.06 1262.35,794.31 1263.36,795.34"/>
    </edge>
    <edge id=":luna_osmena_4" function="internal">
        <lane id=":luna_osmena_4_0" index="0" disallow="tram rail_urban rail rail_electric rail_fast ship" speed="8.33" length="20.78" shape="1262.75,774.33 1266.50,794.75"/>
        <lane id=":luna_osmena_4_1" index="1" disallow="tram rail_urban rail rail_electric rail_fast ship" speed="8.33" length="20.78" shape="1259.60,774.90 1263.36,795.34"/>
    </edge>
    <edge id=":luna_osmena_6" function="internal">
        <lane id=":luna_osmena_6_0" index="0" disallow="tram rail_urban rail rail_electric rail_fast ship" speed="8.33" length="4.88" shape="1259.60,774.90 1259.78,779.77"/>
    </edge>
    <edge id=":luna_osmena_7" function="internal">
        <lane id=":luna_osmena_7_0" index="0" disallow="tram rail_urban rail rail_electric rail_fast ship" speed="3.65" length="1.44" shape="1259.60,774.90 1259.03,776.22"/>
    </edge>
    <edge id=":luna_osmena_11" function="internal">
        <lane id=":luna_osmena_11_0" index="0" disallow="tram rail_urban rail rail_electric rail_fast ship" speed="8.33" length="15.03" shape="1259.78,779.77 1259.80,780.41 1258.15,784.53 1254.65,787.28 1249.31,788.64"/>
    </edge>
    <edge id=":luna_osmena_12" function="internal">
        <lane id=":luna_osmena_12_0" index="0" disallow="tram rail_urban rail rail_electric rail_fast ship" speed="3.65" length="3.23" shape="1259.03,776.22 1258.31,776.76 1257.45,776.51 1256.45,775.47"/>
    </edge>
    <edge id=":luna_osmena_8" function="internal">
        <lane id=":luna_osmena_8_0" index="0" disallow="tram rail_urban rail rail_electric rail_fast ship" speed="6.36" length="9.04" shape="1248.63,782.27 1251.06,781.65 1252.64,780.41 1253.39,778.54 1253.30,776.04"/>
    </edge>
    <edge id=":luna_osmena_9" function="internal">
        <lane id=":luna_osmena_9_0" index="0" disallow="tram rail_urban rail rail_electric rail_fast ship" speed="8.33" length="19.57" shape="1248.97,785.45 1254.48,785.58 1258.71,787.27 1261.67,790.52 1263.36,795.34"/>
    </edge>
    <edge id=":luna_roa_0" function="internal">
        <lane id=":luna_roa_0_0" index="0" disallow="tram rail_urban rail rail_electric rail_fast ship" speed="6.74" length="9.41" shape="1081.26,815.86 1080.40,813.34 1079.01,811.66 1077.08,810.81 1074.62,810.81"/>
    </edge>
    <edge id=":luna_roa_1" function="internal">
        <lane id=":luna_roa_1_0" index="0" disallow="tram rail_urban rail rail_electric rail_fast ship" speed="8.33" length="21.36" shape="1081.26,815.86 1080.44,811.19 1079.55,805.31 1078.77,799.43 1078.28,794.71"/>
    </edge>
    <edge id=":luna_roa_2" function="internal">
        <lane id=":luna_roa_2_0" index="0" disallow="tram rail_urban rail rail_electric rail_fast ship" speed="8.33" length="17.38" shape="1081.26,815.86 1080.78,810.44 1081.80,806.43 1084.30,803.82 1088.31,802.61"/>
    </edge>
    <edge id=":luna_roa_3" function="internal">
        <lane id=":luna_roa_3_0" index="0" disallow="tram rail_urban rail rail_electric rail_fast ship" speed="6.32" length="9.04" shape="1088.99,808.97 1086.56,809.59 1084.98,810.84 1084.26,812.72 1084.40,815.23"/>
    </edge>
    <edge id=":luna_roa_4" function="internal">
        <lane id=":luna_roa_4_0" index="0" disallow="tram rail_urban rail rail_electric rail_fast ship" speed="8.33" length="14.55" shape="1088.99,808.97 1074.62,810.81"/>
        <lane id=":luna_roa_4_1" index="1" disallow="tram rail_urban rail rail_electric rail_fast ship" speed="8.33" length="14.55" shape="1088.65,805.79 1074.14,807.64"/>
    </edge>
    <edge id=":luna_roa_6" function="internal">
        <lane id=":luna_roa_6_0" index="0" disallow="tram rail_urban rail rail_electric rail_fast ship" speed="8.33" length="17.32" shape="1088.65,805.79 1084.48,805.48 1081.36,803.52 1079.29,799.94 1078.28,794.71"/>
    </edge>
    <edge id=":luna_roa_7" function="internal">
        <lane id=":luna_roa_7_0" index="0" disallow="tram rail_urban rail rail_electric rail_fast ship" speed="6.57" length="9.39" shape="1081.46,794.45 1082.04,796.87 1083.32,798.51 1085.29,799.36 1087.97,799.43"/>
    </edge>
    <edge id=":luna_roa_8" function="internal">
        <lane id=":luna_roa_8_0" index="0" disallow="tram rail_urban rail rail_electric rail_fast ship" speed="8.33" length="20.99" shape="1081.46,794.45 1081.96,799.11 1082.71,804.87 1083.58,810.61 1084.40,815.23"/>
    </edge>
    <edge id=":luna_roa_9" function="internal">
        <lane id=":luna_roa_9_0" index="0" disallow="tram rail_urban rail rail_electric rail_fast ship" speed="8.33" length="16.82" shape="1081.46,794.45 1081.37,799.75 1080.12,803.72 1077.71,806.35 1074.14,807.64"/>
    </edge>
    <edge id=":luna_roa_10" function="internal">
        <lane id=":luna_roa_10_0" index="0" disallow="tram rail_urban rail rail_electric rail_fast ship" speed="6.78" length="9.37" shape="1073.19,801.31 1075.59,800.59 1077.24,799.24 1078.13,797.29 1078.28,794.71"/>
    </edge>
    <edge id=":luna_roa_11" function="internal">
        <lane id=":luna_roa_11_0" index="0" disallow="tram rail_urban rail rail_electric rail_fast ship" speed="8.33" length="14.83" shape="1073.19,801.31 1087.97,799.43"/>
        <lane id=":luna_roa_11_1" index="1" disallow="tram rail_urban rail rail_electric rail_fast ship" speed="8.33" length="14.83" shape="1073.66,804.48 1088.31,802.61"/>
    </edge>
    <edge id=":luna_roa_13" function="internal">
        <lane id=":luna_roa_13_0" index="0" disallow="tram rail_urban rail rail_electric rail_fast ship" speed="8.33" length="16.99" shape="1073.66,804.48 1077.46,804.68 1080.51,806.54 1082.82,810.05 1084.40,815.23"/>
    </edge>
    <edge id=":osmena_florentino_0" function="internal">
        <lane id=":osmena_florentino_0_0" index="0" disallow="tram rail_urban rail rail_electric rail_fast ship" speed="8.33" length="14.46" shape="1267.52,852.14 1264.81,837.92"/>
        <lane id=":osmena_florentino_0_1" index="1" disallow="tram rail_urban rail rail_electric rail_fast ship" speed="8.33" length="14.46" shape="1270.66,851.53 1267.96,837.33"/>
    </edge>
    <edge id=":osmena_florentino_2" function="internal">
        <lane id=":osmena_florentino_2_0" index="0" disallow="tram rail_urban rail rail_electric rail_fast ship" speed="8.70" length="3.69" shape="1270.66,851.53 1270.68,847.84"/>
    </edge>
    <edge id=":osmena_florentino_7" function="internal">
        <lane id=":osmena_florentino_7_0" index="0" disallow="tram rail_urban rail rail_electric rail_fast ship" speed="8.70" length="13.26" shape="1270.68,847.84 1270.68,847.63 1272.40,844.51 1275.82,842.17 1280.94,840.62"/>
    </edge>
    <edge id=":osmena_florentino_3" function="internal">
        <lane id=":osmena_florentino_3_0" index="0" disallow="tram rail_urban rail rail_electric rail_fast ship" speed="6.51" length="9.04" shape="1281.44,843.79 1279.08,844.60 1277.54,845.96 1276.83,847.86 1276.94,850.32"/>
    </edge>
    <edge id=":osmena_florentino_4" function="internal">
        <lane id=":osmena_florentino_4_0" index="0" disallow="tram rail_urban rail rail_electric rail_fast ship" speed="6.54" length="9.19" shape="1274.25,836.16 1275.06,838.52 1276.44,840.05 1278.40,840.76 1280.94,840.62"/>
    </edge>
    <edge id=":osmena_florentino_5" function="internal">
        <lane id=":osmena_florentino_5_0" index="0" disallow="tram rail_urban rail rail_electric rail_fast ship" speed="8.33" length="14.42" shape="1274.25,836.16 1276.94,850.32"/>
        <lane id=":osmena_florentino_5_1" index="1" disallow="tram rail_urban rail rail_electric rail_fast ship" speed="8.33" length="14.42" shape="1271.10,836.75 1273.80,850.92"/>
    </edge>
    <edge id=":recto_osmena_0" function="internal">
        <lane id=":recto_osmena_0_0" index="0" disallow="pedestrian bicycle tram rail_urban rail rail_electric rail_fast ship" speed="7.81" length="13.18" shape="1316.27,1098.43 1314.89,1094.30 1313.05,1091.52 1310.74,1090.11 1307.95,1090.06"/>
    </edge>
    <edge id=":recto_osmena_1" function="internal">
        <lane id=":recto_osmena_1_0" index="0" disallow="tram rail_urban rail rail_electric rail_fast ship" speed="8.33" length="28.46" shape="1316.27,1098.43 1309.75,1070.66"/>
        <lane id=":recto_osmena_1_1" index="1" disallow="tram rail_urban rail rail_electric rail_fast ship" speed="8.33" length="28.46" shape="1319.38,1097.70 1312.89,1070.06"/>
    </edge>
    <edge id=":recto_osmena_3" function="internal">
        <lane id=":recto_osmena_3_0" index="0" disallow="pedestrian bicycle tram rail_urban rail rail_electric rail_fast ship" speed="9.72" length="3.27" shape="1319.38,1097.70 1318.98,1094.45"/>
    </edge>
    <edge id=":recto_osmena_16" function="internal">
        <lane id=":recto_osmena_16_0" index="0" disallow="pedestrian bicycle tram rail_urban rail rail_electric rail_fast ship" speed="9.72" length="19.62" shape="1318.98,1094.45 1318.50,1090.64 1319.57,1085.22 1322.59,1081.45 1327.58,1079.33"/>
    </edge>
    <edge id=":recto_osmena_4" function="internal">
        <lane id=":recto_osmena_4_0" index="0" disallow="pedestrian bicycle tram rail_urban rail rail_electric rail_fast ship" speed="6.43" length="9.02" shape="1329.82,1089.59 1327.49,1090.43 1326.01,1091.81 1325.39,1093.74 1325.61,1096.22"/>
    </edge>
    <edge id=":recto_osmena_5" function="internal">
        <lane id=":recto_osmena_5_0" index="0" disallow="pedestrian bicycle tram rail_urban rail rail_electric rail_fast ship" speed="19.45" length="21.97" shape="1329.82,1089.59 1323.26,1090.30 1318.54,1089.88 1313.99,1089.43 1307.95,1090.06"/>
        <lane id=":recto_osmena_5_1" index="1" disallow="pedestrian bicycle tram rail_urban rail rail_electric rail_fast ship" speed="19.45" length="21.97" shape="1329.14,1086.47 1322.59,1087.17 1317.88,1086.75 1313.34,1086.30 1307.30,1086.93"/>
    </edge>
    <edge id=":recto_osmena_7" function="internal">
        <lane id=":recto_osmena_7_0" index="0" disallow="pedestrian bicycle tram rail_urban rail rail_electric rail_fast ship" speed="9.72" length="4.27" shape="1328.39,1083.35 1324.12,1083.45"/>
    </edge>
    <edge id=":recto_osmena_17" function="internal">
        <lane id=":recto_osmena_17_0" index="0" disallow="pedestrian bicycle tram rail_urban rail rail_electric rail_fast ship" speed="9.72" length="18.98" shape="1324.12,1083.45 1322.76,1083.48 1318.29,1081.30 1315.01,1076.83 1312.89,1070.06"/>
    </edge>
    <edge id=":recto_osmena_8" function="internal">
        <lane id=":recto_osmena_8_0" index="0" disallow="pedestrian bicycle tram rail_urban rail rail_electric rail_fast ship" speed="6.58" length="9.42" shape="1319.17,1068.84 1320.01,1071.18 1321.47,1072.67 1323.53,1073.30 1326.21,1073.07"/>
    </edge>
    <edge id=":recto_osmena_9" function="internal">
        <lane id=":recto_osmena_9_0" index="0" disallow="tram rail_urban rail rail_electric rail_fast ship" speed="8.33" length="28.19" shape="1319.17,1068.84 1325.61,1096.22"/>
        <lane id=":recto_osmena_9_1" index="1" disallow="tram rail_urban rail rail_electric rail_fast ship" speed="8.33" length="28.19" shape="1316.03,1069.45 1322.50,1096.96"/>
    </edge>
    <edge id=":recto_osmena_11" function="internal">
        <lane id=":recto_osmena_11_0" index="0" disallow="pedestrian bicycle tram rail_urban rail rail_electric rail_fast ship" speed="9.91" length="3.19" shape="1316.03,1069.45 1316.29,1072.62"/>
    </edge>
    <edge id=":recto_osmena_18" function="internal">
        <lane id=":recto_osmena_18_0" index="0" disallow="pedestrian bicycle tram rail_urban rail rail_electric rail_fast ship" speed="9.91" length="18.92" shape="1316.29,1072.62 1316.58,1076.19 1315.30,1081.35 1312.21,1084.93 1307.30,1086.93"/>
    </edge>
    <edge id=":recto_osmena_12" function="internal">
        <lane id=":recto_osmena_12_0" index="0" disallow="pedestrian bicycle tram rail_urban rail rail_electric rail_fast ship" speed="7.43" length="11.95" shape="1306.00,1080.66 1308.28,1079.61 1309.67,1077.59 1310.15,1074.61 1309.75,1070.66"/>
    </edge>
    <edge id=":recto_osmena_13" function="internal">
        <lane id=":recto_osmena_13_0" index="0" disallow="pedestrian bicycle tram rail_urban rail rail_electric rail_fast ship" speed="11.11" length="21.39" shape="1306.00,1080.66 1326.90,1076.20"/>
        <lane id=":recto_osmena_13_1" index="1" disallow="pedestrian bicycle tram rail_urban rail rail_electric rail_fast ship" speed="11.11" length="21.39" shape="1306.65,1083.79 1327.58,1079.33"/>
    </edge>
    <edge id=":recto_osmena_15" function="internal">
        <lane id=":recto_osmena_15_0" index="0" disallow="pedestrian bicycle tram rail_urban rail rail_electric rail_fast ship" speed="9.72" length="1.98" shape="1306.65,1083.79 1308.63,1083.75"/>
    </edge>
    <edge id=":recto_osmena_19" function="internal">
        <lane id=":recto_osmena_19_0" index="0" disallow="pedestrian bicycle tram rail_urban rail rail_electric rail_fast ship" speed="9.72" length="21.26" shape="1308.63,1083.75 1312.19,1083.67 1316.68,1085.82 1320.11,1090.25 1322.50,1096.96"/>
    </edge>
    <edge id=":roa_recto_0" function="internal">
        <lane id=":roa_recto_0_0" index="0" disallow="pedestrian bicycle tram rail_urban rail rail_electric rail_fast ship" speed="27.78" length="14.35" shape="1151.87,1122.51 1137.84,1125.47"/>
        <lane id=":roa_recto_0_1" index="1" disallow="pedestrian bicycle tram rail_urban rail rail_electric rail_fast ship" speed="27.78" length="14.35" shape="1151.22,1119.38 1137.17,1122.34"/>
    </edge>
    <edge id=":roa_recto_2" function="internal">
        <lane id=":roa_recto_2_0" index="0" disallow="pedestrian bicycle tram rail_urban rail rail_electric rail_fast ship" speed="8.66" length="3.71" shape="1151.22,1119.38 1147.51,1119.43"/>
    </edge>
    <edge id=":roa_recto_8" function="internal">
        <lane id=":roa_recto_8_0" index="0" disallow="pedestrian bicycle tram rail_urban rail rail_electric rail_fast ship" speed="8.66" length="13.18" shape="1147.51,1119.43 1147.28,1119.43 1144.12,1117.78 1141.76,1114.44 1140.18,1109.39"/>
    </edge>
    <edge id=":roa_recto_3" function="internal">
        <lane id=":roa_recto_3_0" index="0" disallow="pedestrian bicycle tram rail_urban rail rail_electric rail_fast ship" speed="6.49" length="9.03" shape="1143.32,1108.76 1144.14,1111.09 1145.52,1112.60 1147.44,1113.27 1149.92,1113.12"/>
    </edge>
    <edge id=":roa_recto_4" function="internal">
        <lane id=":roa_recto_4_0" index="0" disallow="pedestrian bicycle tram rail_urban rail rail_electric rail_fast ship" speed="8.71" length="16.83" shape="1143.32,1108.76 1143.82,1114.02 1142.96,1118.04 1140.75,1120.81 1137.17,1122.34"/>
    </edge>
    <edge id=":roa_recto_5" function="internal">