<additional xmlns:xsi="http://www.w3.org/2001/XMLSchema-instance" xsi:noNamespaceSchemaLocation="http://sumo.dlr.de/xsd/additional_file.xsd">
    <tlLogic id="corrales_recto_tl" type="static" programID="0" offset="0">
        <phase duration="54" state="srrrsrrrsrrrGGGGrr"/>
        <phase duration="6" state="syyysyyysyyyGyyyrr"/>
        <phase duration="46" state="srrrGGGGsrrrsrrrrr"/>
        <phase duration="6" state="syyyGyyysyyysyyyrr"/>
        <phase duration="59" state="srrrsrrrGGGGsrrrrr"/>
        <phase duration="6" state="syyysyyyGyyysyyyrr"/>
        <phase duration="39" state="GGGGsrrrsrrrsrrrrr"/>
        <phase duration="6" state="Gyyysyyysyyysyyyrr"/>
    </tlLogic>
    <tlLogic id="corrales_recto_tl" type="static" programID="1" offset="0">
        <phase duration="134" state="srrrsrrrsrrrGGGGrr"/>
        <phase duration="6" state="syyysyyysyyyGyyyrr"/>
        <phase duration="104" state="srrrGGGGsrrrsrrrrr"/>
        <phase duration="6" state="syyyGyyysyyysyyyrr"/>
        <phase duration="59" state="srrrsrrrGGGGsrrrrr"/>
        <phase duration="6" state="syyysyyyGyyysyyyrr"/>
        <phase duration="39" state="GGGGsrrrsrrrsrrrrr"/>
        <phase duration="6" state="Gyyysyyysyyysyyyrr"/>
    </tlLogic>
    <tlLogic id="corrales_recto_tl" type="static" programID="2" offset="0">
        <phase duration="134" state="srrrsrrrsrrrGGGGrr"/>
        <phase duration="6" state="syyysyyysyyyGyyyrr"/>
        <phase duration="104" state="srrrGGGGsrrrsrrrrr"/>
        <phase duration="6" state="syyyGyyysyyysyyyrr"/>
        <phase duration="59" state="srrrsrrrGGGGsrrrrr"/>
        <phase duration="6" state="syyysyyyGyyysyyyrr"/>
        <phase duration="39" state="GGGGsrrrsrrrsrrrrr"/>
        <phase duration="6" state="Gyyysyyysyyysyyyrr"/>
    </tlLogic>
    <tlLogic id="corrales_recto_tl" type="static" programID="3" offset="0">
        <phase duration="54" state="srrrsrrrsrrrGGGGrr"/>
        <phase duration="6" state="syyysyyysyyyGyyyrr"/>
        <phase duration="44" state="srrrGGGGsrrrsrrrrr"/>
        <phase duration="6" state="syyyGyyysyyysyyyrr"/>
        <phase duration="59" state="srrrsrrrGGGGsrrrrr"/>
        <phase duration="6" state="syyysyyyGyyysyyyrr"/>
        <phase duration="39" state="GGGGsrrrsrrrsrrrrr"/>
        <phase duration="6" state="Gyyysyyysyyysyyyrr"/>
    </tlLogic>
    <tlLogic id="corrales_recto_tl" type="static" programID="4" offset="0">
          <phase duration="14" state="srrrsrrrsrrrGGGGrr"/>
        <phase duration="6" state="syyysyyysyyyGyyyrr"/>
        <phase duration="14" state="srrrGGGGsrrrsrrrrr"/>
        <phase duration="6" state="syyyGyyysyyysyyyrr"/>
        <phase duration="14" state="srrrsrrrGGGGsrrrrr"/>
        <phase duration="6" state="syyysyyyGyyysyyyrr"/>
        <phase duration="14" state="GGGGsrrrsrrrsrrrrr"/>
        <phase duration="6" state="Gyyysyyysyyysyyyrr"/>
    </tlLogic>

    <WAUT startProg="0" refTime="100" id="w1">
    <wautSwitch to="1" time="14400"></wautSwitch>
    <wautSwitch to="2" time="43200"></wautSwitch>
    <wautSwitch to="3" time="54000"></wautSwitch>
    <wautSwitch to="4" time="61200"></wautSwitch>
    </WAUT>
    <wautJunction junctionID="corrales_recto_tl" wautID="w1"></wautJunction>

    <tlLogic id="luna_corrales_tl" type="static" programID="0" offset="0">
        <phase duration="3600" state="oooooooooooooooooo"/>
    </tlLogic>
    <tlLogic id="luna_corrales_tl" type="static" programID="1" offset="0">
        <phase duration="14" state="GGGosrroGGGoosrroo"/>
        <phase duration="6" state="syyysyyysyyyssyyyr"/>
        <phase duration="9" state="srroGGGosrrooGGGoo"/>
        <phase duration="6" state="syyysyyysyyyssyyyr"/>
    </tlLogic>
    <tlLogic id="luna_corrales_tl" type="static" programID="2" offset="0">
        <phase duration="24" state="GGGosrroGGGoosrroo"/>
        <phase duration="6" state="syyysyyysyyyssyyyr"/>
        <phase duration="19" state="srroGGGosrrooGGGoo"/>
        <phase duration="6" state="syyysyyysyyyssyyyr"/>
    </tlLogic>
    <tlLogic id="luna_corrales_tl" type="static" programID="3" offset="0">
        <phase duration="14" state="GGGosrroGGGoosrroo"/>
        <phase duration="6" state="syyysyyysyyyssyyyr"/>
        <phase duration="19" state="srroGGGosrrooGGGoo"/>
        <phase duration="6" state="syyysyyysyyyssyyyr"/>
    </tlLogic>
    <tlLogic id="luna_corrales_tl" type="static" programID="4" offset="0">
        <phase duration="19" state="GGGosrroGGGoosrroo"/>
        <phase duration="6" state="syyysyyysyyyssyyyr"/>
        <phase duration="14" state="srroGGGosrrooGGGoo"/>
        <phase duration="6" state="syyysyyysyyyssyyyr"/>
    </tlLogic>
    
    <WAUT startProg="0" refTime="18000" id="w3">
        <wautSwitch to="1" time="3600"></wautSwitch>
        <wautSwitch to="2" time="5400"></wautSwitch>
        <wautSwitch to="3" time="46800"></wautSwitch>
        <wautSwitch to="4" time="54000"></wautSwitch>
        <wautSwitch to="1" time="57600"></wautSwitch>
        <wautSwitch to="0" time="61200"></wautSwitch>
    </WAUT>
    <wautJunction junctionID="luna_corrales_tl" wautID="w3"></wautJunction>

    <tlLogic id="luna_roa_tl" type="static" programID="0" offset="0">
        <phase duration="3600" state="oooooooooooooooooo"/>
    </tlLogic>
    <tlLogic id="luna_roa_tl" type="static" programID="1" offset="0">
        <phase duration="14" state="srrsrrrGGGosrrr"/>
        <phase duration="6" state="syysyyysyyosyyy"/>
        <phase duration="14" state="GGGsrrrsrrosrrr"/>
        <phase duration="6" state="syysyyysyyosyyy"/>
        <phase duration="14" state="srrGGGGsrrosrrr"/>
        <phase duration="6" state="syysyyysyyosyyy"/>
        <phase duration="4" state="srrsrrrsrroGGGG"/>
        <phase duration="6" state="syysyyysyyosyyy"/>
    </tlLogic>
    <tlLogic id="luna_roa_tl" type="static" programID="2" offset="0">
        <phase duration="34" state="srrsrrrGGGosrrr"/>
        <phase duration="6" state="syysyyysyyosyyy"/>
        <phase duration="19" state="GGGsrrrsrrosrrr"/>
        <phase duration="6" state="syysyyysyyosyyy"/>
        <phase duration="24" state="srrGGGGsrrosrrr"/>
        <phase duration="6" state="syysyyysyyosyyy"/>
        <phase duration="11" state="srrsrrrsrroGGGG"/>
        <phase duration="6" state="syysyyysyyosyyy"/>
    </tlLogic>
    <tlLogic id="luna_roa_tl" type="static" programID="3" offset="0">
        <phase duration="54" state="srrsrrrGGGosrrr"/>
        <phase duration="6" state="syysyyysyyosyyy"/>
        <phase duration="19" state="GGGsrrrsrrosrrr"/>
        <phase duration="6" state="syysyyysyyosyyy"/>
        <phase duration="29" state="srrGGGGsrrosrrr"/>
        <phase duration="6" state="syysyyysyyosyyy"/>
        <phase duration="9" state="srrsrrrsrroGGGG"/>
        <phase duration="6" state="syysyyysyyosyyy"/>
    </tlLogic>
    <WAUT startProg="0" refTime="0" id="w4">
        <wautSwitch to="1" time="3600"></wautSwitch>
        <wautSwitch to="2" time="7200"></wautSwitch>
        <wautSwitch to="3" time="14400"></wautSwitch>
        <wautSwitch to="0" time="54000"></wautSwitch>
    </WAUT>
    <wautJunction junctionID="luna_roa_tl" wautID="w4"></wautJunction>

    <tlLogic id="osmena_florentino_tl" type="static" programID="0" offset="0">
        <phase duration="3600" state="oooooooooo"/>
    </tlLogic>
    <tlLogic id="osmena_florentino_tl" type="static" programID="1" offset="0">
        <phase duration="19" state="GGrsrrGGGg"/>
        <phase duration="6" state="yyysrssyyg"/>
        <phase duration="11" state="GGGsrssrrg"/>
        <phase duration="6" state="yyysrssyyg"/>
        <phase duration="14" state="rrrGrssrrg"/>
        <phase duration="6" state="yyysrssyyg"/>
    </tlLogic>
    <WAUT startProg="0" refTime="0" id="w5">
        <wautSwitch to="1" time="3600"></wautSwitch>
        <wautSwitch to="0" time="54000"></wautSwitch>
    </WAUT>
    <wautJunction junctionID="osmena_florentino_tl" wautID="w5"></wautJunction>

    <tlLogic id="recto_osmena_tl" type="static" programID="0" offset="0">
        <tlLogic id="recto_osmena_tl" type="static" programID="0" offset="0">
        <phase duration="104" state="srrrosrrrosrrrGGGG"/>
        <phase duration="6" state="syyyosyyyosyyysyyy"/>
        <phase duration="104" state="srrroGGGGosrrrsrrr"/>
        <phase duration="6" state="syyyosyyyosyyysyyy"/>
        <phase duration="74" state="srrrosrrroGGGGsrrr"/>
        <phase duration="6" state="syyyosyyyosyyysyyy"/>
        <phase duration="24" state="GGGGosrrrosrrrsrrr"/>
        <phase duration="6" state="syyyosyyyosyyysyyy"/>
    </tlLogic>
    </tlLogic>
    <tlLogic id="recto_osmena_tl" type="static" programID="1" offset="0">
        <phase duration="134" state="srrrosrrrosrrrGGGG"/>
        <phase duration="6" state="syyyosyyyosyyysyyy"/>
        <phase duration="104" state="srrroGGGGosrrrsrrr"/>
        <phase duration="6" state="syyyosyyyosyyysyyy"/>
        <phase duration="94" state="srrrosrrroGGGGsrrr"/>
        <phase duration="6" state="syyyosyyyosyyysyyy"/>
        <phase duration="54" state="GGGGosrrrosrrrsrrr"/>
        <phase duration="6" state="syyyosyyyosyyysyyy"/>
    </tlLogic>
    <tlLogic id="recto_osmena_tl" type="static" programID="2" offset="0">
        <phase duration="49" state="srrrosrrrosrrrGGGG"/>
        <phase duration="6" state="syyyosyyyosyyysyyy"/>
        <phase duration="14" state="srrroGGGGosrrrsrrr"/>
        <phase duration="6" state="syyyosyyyosyyysyyy"/>
        <phase duration="14" state="srrrosrrroGGGGsrrr"/>
        <phase duration="6" state="syyyosyyyosyyysyyy"/>
        <phase duration="14" state="GGGGosrrrosrrrsrrr"/>
        <phase duration="6" state="syyyosyyyosyyysyyy"/>
    </tlLogic>
    <tlLogic id="recto_osmena_tl" type="static" programID="3" offset="0">
        <phase duration="24" state="srrrosrrrosrrrGGGG"/>
        <phase duration="6" state="syyyosyyyosyyysyyy"/>
        <phase duration="14" state="srrroGGGGosrrrsrrr"/>
        <phase duration="6" state="syyyosyyyosyyysyyy"/>
        <phase duration="14" state="srrrosrrroGGGGsrrr"/>
        <phase duration="6" state="syyyosyyyosyyysyyy"/>
        <phase duration="14" state="GGGGosrrrosrrrsrrr"/>
        <phase duration="6" state="syyyosyyyosyyysyyy"/>
    </tlLogic>

    <WAUT startProg="0" refTime="0" id="w2">
        <wautSwitch to="1" time="5400"></wautSwitch>
        <wautSwitch to="2" time="54000"></wautSwitch>
        <wautSwitch to="3" time="57600"></wautSwitch>
    </WAUT>
    <wautJunction junctionID="recto_osmena_tl" wautID="w2"></wautJunction>

</additional>